2020-09-17T16:26:21,002  INFO Gbl:63 JVM: 11.0.7; Oracle Corporation; mixed mode; 64-bit
2020-09-17T16:26:21,003  INFO Gbl:67 OS: Mac OS X; 10.15.5; x86_64
2020-09-17T16:26:21,003  INFO Gbl:70 CPU cores: 12
2020-09-17T16:26:21,008  INFO Gbl:71 max. Memory: 4096.0MB (4294967296B)
2020-09-17T16:26:21,013  INFO Gbl:109 MATSim-Build: recba7bde203c41bf52225beba305955b63430299 (2020-09-16 22:01:08)
2020-09-17T16:26:21,016  INFO ControlerListenerManagerImpl:107 calling notifyStartup on org.matsim.guice.DependencyGraphControlerListener
2020-09-17T16:26:21,021  INFO MemoryObserver:41 used RAM: 29 MB  free: 226 MB  total: 256 MB
2020-09-17T16:26:21,145  INFO ControlerListenerManagerImpl:107 calling notifyStartup on org.matsim.counts.CountsControlerListener
2020-09-17T16:26:21,145  INFO ControlerListenerManagerImpl:107 calling notifyStartup on org.matsim.analysis.ModeStatsControlerListener
2020-09-17T16:26:21,145  INFO ControlerListenerManagerImpl:107 calling notifyStartup on org.matsim.analysis.ScoreStatsControlerListener
2020-09-17T16:26:21,146  INFO ControlerListenerManagerImpl:110 all ControlerStartupListeners called.
2020-09-17T16:26:21,147  INFO ControlerUtils:79 config dump before iterations start
2020-09-17T16:26:21,182  INFO ControlerUtils:83 

<?xml version="1.0" encoding="UTF-8"?>
<!DOCTYPE config SYSTEM "http://www.matsim.org/files/dtd/config_v2.dtd">
<config>
	<module name="Carsharing" >
		<param name="membership" value="/Users/cptnemo2005/IdeaProjects/matsim-examples-tri/src/test/input/CSMembership.xml" />
		<param name="statsWriterFrequency" value="1" />
		<param name="vehiclelocations" value="/Users/cptnemo2005/IdeaProjects/matsim-examples-tri/src/test/input/CarsharingStations.xml" />
	</module>
	<module name="FreeFloating" >
		<param name="areasFreefloating" value="freefloating_areas.xml" />
		<param name="constantFreeFloating" value="-0.0" />
		<param name="distanceFeeFreeFloating" value="-0.00" />
		<param name="specialTimeEnd" value="0" />
		<param name="specialTimeFee" value="0" />
		<param name="specialTimeStart" value="0" />
		<param name="timeFeeFreeFloating" value="-0.01" />
		<param name="timeParkingFeeFreeFloating" value="-0.005" />
		<param name="travelingFreeFloating" value="-0.1" />
		<param name="useFreeFloating" value="true" />
		<param name="vehiclelocationsFreefloating" value="null" />
	</module>
	<module name="JDEQSim" >
		<param name="carSize" value="7.5" />
		<param name="endTime" value="undefined" />
		<param name="flowCapacityFactor" value="1.0" />
		<param name="gapTravelSpeed" value="15.0" />
		<param name="minimumInFlowCapacity" value="1800.0" />
		<param name="squeezeTime" value="1800.0" />
		<param name="storageCapacityFactor" value="1.0" />
	</module>
	<module name="OneWayCarsharing" >
		<param name="constantOneWayCarsharing" value="-0.4" />
		<param name="distanceFeeOneWayCarsharing" value="-0.0" />
		<param name="rentalPriceTimeOneWayCarsharing" value="null" />
		<param name="searchDistanceOneWayCarsharing" value="1000.0" />
		<param name="timeFeeOneWayCarsharing" value="-0.0" />
		<param name="timeParkingFeeOneWayCarsharing" value="-0.005" />
		<param name="travelingOneWayCarsharing" value="-10.0" />
		<param name="useOneWayCarsharing" value="true" />
		<param name="vehiclelocationsOneWayCarsharing" value="Stations.txt" />
	</module>
	<module name="TimeAllocationMutator" >
		<!-- Default:true; Defines whether time mutation changes an activity's duration. -->
		<param name="mutationAffectsDuration" value="true" />
		<!-- Default:1800.0; Defines how many seconds a time mutation can maximally shift a time. -->
		<param name="mutationRange" value="1800.0" />
	</module>
	<module name="TwoWayCarsharing" >
		<param name="constantTwoWayCarsharing" value="-0.4" />
		<param name="distanceFeeTwoWayCarsharing" value="-0.0" />
		<param name="rentalPriceTimeTwoWayCarsharing" value="null" />
		<param name="searchDistanceTwoWayCarsharing" value="10000.0" />
		<param name="timeFeeTwoWayCarsharing" value="-0.0" />
		<param name="travelingTwoWayCarsharing" value="-6.0" />
		<param name="useTwoWayCarsharing" value="true" />
		<param name="vehiclelocationsTwoWayCarsharing" value="CarsharingStations.xml" />
	</module>
	<module name="changeMode" >
		<!-- Defines whether car availability is considered be considered or not. An agent has no car only if it has no license, or never access to a car. Default: true -->
		<param name="ignoreCarAvailability" value="true" />
		<!-- Defines the mode switch behavior. Possible values [fromAllModesToSpecifiedModes, fromSpecifiedModesToSpecifiedModes] Default: fromSpecifiedModesToSpecifiedModes. -->
		<param name="modeSwitchBehavior" value="fromSpecifiedModesToSpecifiedModes" />
		<!-- Defines all the modes available, including chain-based modes, seperated by commas -->
		<param name="modes" value="car,pt" />
	</module>
	<module name="controler" >
		<!-- Compression algorithm to use when writing out data to files. Possible values: [none, gzip, lz4, zst] -->
		<param name="compressionType" value="gzip" />
		<!-- Sets whether graphs showing some analyses should automatically be generated during the simulation. The generation of graphs usually takes a small amount of time that does not have any weight in big simulations, but add a significant overhead in smaller runs or in test cases where the graphical output is not even requested. -->
		<param name="createGraphs" value="true" />
		<!-- true if at the end of a run, plans, network, config etc should be dumped to a file -->
		<param name="dumpDataAtEnd" value="true" />
		<!-- Default=false. If enabled, the router takes travel times needed for turning moves into account. Cannot be used if the (Fast)AStarLandmarks routing or TravelTimeCalculator.separateModes is enabled. -->
		<param name="enableLinkToLinkRouting" value="false" />
		<!-- Default=xml; Specifies the file format for writing events. Currently supported: [xml, pb, json]
		Multiple values can be specified separated by commas (','). -->
		<param name="eventsFileFormat" value="xml" />
		<!-- Default=0. First Iteration of a simulation. -->
		<param name="firstIteration" value="0" />
		<!-- Default=1000. Last Iteration of a simulation. -->
		<param name="lastIteration" value="20" />
		<!-- Defines which mobility simulation will be used. Currently supported: qsim JDEQSim hermes 
		Depending on the chosen mobsim, you'll have to add additional config modules to configure the corresponding mobsim.
		For 'qsim', add a module 'qsim' to the config. -->
		<param name="mobsim" value="qsim" />
		<param name="outputDirectory" value="test/output/RunCarSharingIt/test/" />
		<!-- Possible values: failIfDirectoryExists, overwriteExistingFiles, deleteDirectoryIfExists -->
		<param name="overwriteFiles" value="overwriteExistingFiles" />
		<!-- The type of routing (least cost path) algorithm used, may have the values: Dijkstra, FastDijkstra, AStarLandmarks or FastAStarLandmarks -->
		<param name="routingAlgorithmType" value="AStarLandmarks" />
		<!-- An identifier for the current run which is used as prefix for output files and mentioned in output xml files etc. -->
		<param name="runId" value="run1" />
		<!-- Comma-separated list of visualizer output file formats. `transims', `googleearth', and `otfvis'. -->
		<param name="snapshotFormat" value="" />
		<!-- iterationNumber % writeEventsInterval == 0 defines in which iterations events are written to a file. `0' disables events writing completely. -->
		<param name="writeEventsInterval" value="1" />
		<!-- iterationNumber % writePlansInterval == 0 defines (hopefully) in which iterations plans are written to a file. `0' disables plans writing completely.  Some plans in early iterations are always written -->
		<param name="writePlansInterval" value="1" />
		<!-- iterationNumber % writeSnapshotsInterval == 0 defines in which iterations snapshots are written to a file. `0' disables snapshots writing completely -->
		<param name="writeSnapshotsInterval" value="1" />
		<!-- iterationNumber % writeEventsInterval == 0 defines in which iterations trips CSV are written to a file. `0' disables trips writing completely. -->
		<param name="writeTripsInterval" value="10" />
	</module>
	<module name="counts" >
		<!-- Transport modes that will be respected for the counts comparison. 'car' is default, which includes also bussed from the pt simulation module. Use this parameter in combination with 'filterModes' = true! -->
		<param name="analyzedModes" value="car" />
		<!-- Specifies over how many iterations the link volumes should be averaged that are used for the counts comparison. Use 1 or 0 to only use the link volumes of a single iteration. This values cannot be larger than the value specified for writeCountsInterval -->
		<param name="averageCountsOverIterations" value="5" />
		<!-- factor by which to re-scale the simulated values.  necessary when simulation runs with something different from 100%.  needs to be adapted manually -->
		<param name="countsScaleFactor" value="1.0" />
		<!-- distance to distanceFilterCenterNode to include counting stations. The unit of distance is the Euclidean distance implied by the coordinate system -->
		<param name="distanceFilter" value="null" />
		<!-- node id for center node of distance filter -->
		<param name="distanceFilterCenterNode" value="null" />
		<!-- If true, link counts from legs performed on modes not included in the 'analyzedModes' parameter are ignored. -->
		<param name="filterModes" value="false" />
		<!-- The Coordinates Reference System in which the coordinates are expressed in the input file. At import, the coordinates will be converted to the coordinate system defined in "global", and willbe converted back at export. If not specified, no conversion happens. -->
		<param name="inputCRS" value="null" />
		<!-- input file name to counts package -->
		<param name="inputCountsFile" value="null" />
		<!-- possible values: `html', `kml', `txt', `all' -->
		<param name="outputformat" value="txt" />
		<!-- Specifies how often the counts comparison should be calculated and written. -->
		<param name="writeCountsInterval" value="10" />
	</module>
	<module name="dvrp" >
		<!-- Mode of which the network will be used for throwing events and hence calculating travel times. Default is car. -->
		<param name="mobsimMode" value="car" />
		<!-- Set of modes of which the network will be used for DVRP travel time estimation and routing DVRP vehicles. Each specific DVRP mode may use a subnetwork of this network for routing vehicles (e.g. DRT buses travelling only along a specified links or serving a limited area). Default is "car" (i.e. single-element set of modes), i.e. the car network is used. Empty value "" (i.e. empty set of modes) means no network filtering, i.e. the original scenario.network is used -->
		<param name="networkModes" value="car" />
		<!-- Used for OFFLINE estimation of travel times for VrpOptimizer by means of the exponential moving average. The weighting decrease, alpha, must be in (0,1]. We suggest small values of alpha, e.g. 0.05. The averaging starts from the initial travel time estimates. If not provided, the free-speed TTs is used as the initial estimates -->
		<param name="travelTimeEstimationAlpha" value="0.05" />
		<!-- Used for ONLINE estimation of travel times for VrpOptimizer by combining WithinDayTravelTime and DvrpOfflineTravelTimeEstimator. The beta coefficient is provided in seconds and should be either 0 (no online estimation) or positive (mixed online-offline estimation). For 'beta = 0', only the offline estimate is used: 'onlineTT(t) = offlineTT(t)', where 'offlineTT(t)' in the offline estimate for TT at time 't', For 'beta > 0', estimating future TTs at time 't', uses the currently observed TT to correct the offline estimates is made: where 'currentTT' is the currently observed TT, and 'correction = min(1, max(0, 1 - (time - currentTime) / beta))' The rule is that correction decreases linearly from 1 (when 'time = currentTime') to 0 (when 'time = currentTime + beta' For 'time > currentTime + beta' correction is 0, whereas if 'time < currentTime' it is 1. If beta is sufficiently large, 'beta >> 0', only the currently observed TT is used. -->
		<param name="travelTimeEstimationBeta" value="0.0" />
	</module>
	<module name="facilities" >
		<!-- This defines how facilities should be created. Possible values: none fromFile setInScenario onePerActivityLinkInPlansFile onePerActivityLinkInPlansFileExceptWhenCoordinatesAreGiven onePerActivityLocationInPlansFile  -->
		<param name="facilitiesSource" value="fromFile" />
		<!-- A prefix to be used for auto-generated IDs. -->
		<param name="idPrefix" value="f_auto_" />
		<!-- The Coordinates Reference System in which the coordinates are expressed in the input file. At import, the coordinates will be converted to the coordinate system defined in "global", and willbe converted back at export. If not specified, no conversion happens. -->
		<param name="inputCRS" value="null" />
		<param name="inputFacilitiesFile" value="/Users/cptnemo2005/IdeaProjects/matsim-examples-tri/src/test/input/facilities.xml" />
		<param name="inputFacilityAttributesFile" value="null" />
		<param name="insistingOnUsingDeprecatedFacilitiesAttributeFile" value="false" />
	</module>
	<module name="global" >
		<param name="coordinateSystem" value="Atlantis" />
		<param name="defaultDelimiter" value=";" />
		<param name="insistingOnDeprecatedConfigVersion" value="true" />
		<!-- "global" number of threads.  This number is used, e.g., for replanning, but NOT in QSim.  This can typically be set to as many cores as you have available, or possibly even slightly more. -->
		<param name="numberOfThreads" value="4" />
		<param name="randomSeed" value="4711" />
	</module>
	<module name="hermes" >
		<!-- Simulation End Time -->
		<param name="endTime" value="30:00:00" />
		<param name="flowCapacityFactor" value="1.0" />
		<param name="mainMode" value="car" />
		<param name="storageCapacityFactor" value="1.0" />
		<!-- time in seconds.  Time after which the frontmost vehicle on a link is called `stuck' if it does not move. Set to Integer.MAX_VALUE to disable this behavior -->
		<param name="stuckTime" value="10" />
		<!-- treats PT as deterministic. PT vehicles will run with a steady speed. Should be used with separate network layers for PT and other network modes. -->
		<param name="useDeterministicPt" value="false" />
	</module>
	<module name="households" >
		<param name="inputFile" value="null" />
		<param name="inputHouseholdAttributesFile" value="null" />
		<param name="insistingOnUsingDeprecatedHouseholdsAttributeFile" value="false" />
	</module>
	<module name="linkStats" >
		<!-- Specifies over how many iterations the link volumes should be averaged that are used for the link statistics. Use 1 or 0 to only use the link volumes of a single iteration. This values cannot be larger than the value specified for writeLinkStatsInterval -->
		<param name="averageLinkStatsOverIterations" value="5" />
		<!-- Specifies how often the link stats should be calculated and written. Use 0 to disable the generation of link stats. -->
		<param name="writeLinkStatsInterval" value="10" />
	</module>
	<module name="network" >
		<!-- The Coordinates Reference System in which the coordinates are expressed in the input file. At import, the coordinates will be converted to the coordinate system defined in "global", and willbe converted back at export. If not specified, no conversion happens. -->
		<param name="inputCRS" value="null" />
		<param name="inputChangeEventsFile" value="null" />
		<param name="inputNetworkFile" value="/Users/cptnemo2005/IdeaProjects/matsim-examples-tri/src/test/input/network.xml" />
		<param name="laneDefinitionsFile" value="null" />
		<param name="timeVariantNetwork" value="false" />
	</module>
	<module name="parallelEventHandling" >
		<!-- Estimated number of events during mobsim run. An optional optimization hint for the framework. -->
		<param name="estimatedNumberOfEvents" value="null" />
		<!-- Size of the events Queue. Increase for very large scenarios -->
		<param name="eventsQueueSize" value="131072" />
		<!-- Number of threads for parallel events handler. _null_ means the framework decides by itself. 0 is currently not possible. -->
		<param name="numberOfThreads" value="null" />
		<!-- If enabled, each event handler is assigned to its own thread. Note that enabling this feature disabled the numberOfThreads option! This feature is still experimental! -->
		<param name="oneThreadPerHandler" value="false" />
		<!-- If enabled, it is ensured that all events that are created during a time step of the mobility simulation are processed before the next time step is simulated. E.g. neccessary when within-day replanning is used. -->
		<param name="synchronizeOnSimSteps" value="true" />
	</module>
	<module name="planCalcScore" >
		<!-- logit model scale parameter. default: 1.  Has name and default value for historical reasons (see Bryan Raney's phd thesis). -->
		<param name="BrainExpBeta" value="2.0" />
		<param name="PathSizeLogitBeta" value="1.0" />
		<!-- fraction of iterations at which MSA score averaging is started. The matsim theory department suggests to use this together with switching off choice set innovation (where a similar switch exists), but it has not been tested yet. -->
		<param name="fractionOfIterationsToStartScoreMSA" value="null" />
		<!-- new_score = (1-learningRate)*old_score + learningRate * score_from_mobsim.  learning rates close to zero emulate score averaging, but slow down initial convergence -->
		<param name="learningRate" value="1.0" />
		<!-- There used to be a plateau between duration=0 and duration=zeroUtilityDuration. This caused durations to evolve to zero once they were below zeroUtilityDuration, causing problems.  Only use this switch if you need to be backwards compatible with some old results.  (changed nov'13) -->
		<param name="usingOldScoringBelowZeroUtilityDuration" value="false" />
		<!-- write a plans file in each iteration directory which contains what each agent actually did, and the score it received. -->
		<param name="writeExperiencedPlans" value="true" />
		<parameterset type="scoringParameters" >
			<param name="earlyDeparture" value="0.0" />
			<param name="lateArrival" value="-18.0" />
			<param name="marginalUtilityOfMoney" value="1.0" />
			<param name="performing" value="6.0" />
			<param name="subpopulation" value="null" />
			<param name="utilityOfLineSwitch" value="-1.0" />
			<param name="waiting" value="0.0" />
			<param name="waitingPt" value="-6.0" />
			<parameterset type="activityParams" >
				<param name="activityType" value="dummy" />
				<param name="closingTime" value="undefined" />
				<param name="earliestEndTime" value="undefined" />
				<param name="latestStartTime" value="undefined" />
				<param name="minimalDuration" value="undefined" />
				<param name="openingTime" value="undefined" />
				<param name="priority" value="1.0" />
				<param name="scoringThisActivityAtAll" value="true" />
				<!-- typical duration of activity.  needs to be defined and non-zero.  in sec. -->
				<param name="typicalDuration" value="02:00:00" />
				<!-- method to compute score at typical duration.  Options: | uniform | relative | Use uniform for backwards compatibility (all activities same score; higher proba to drop long acts). -->
				<param name="typicalDurationScoreComputation" value="relative" />
			</parameterset>
			<parameterset type="activityParams" >
				<param name="activityType" value="car interaction" />
				<param name="closingTime" value="undefined" />
				<param name="earliestEndTime" value="undefined" />
				<param name="latestStartTime" value="undefined" />
				<param name="minimalDuration" value="undefined" />
				<param name="openingTime" value="undefined" />
				<param name="priority" value="1.0" />
				<param name="scoringThisActivityAtAll" value="false" />
				<param name="typicalDuration" value="undefined" />
				<param name="typicalDurationScoreComputation" value="relative" />
			</parameterset>
			<parameterset type="activityParams" >
				<param name="activityType" value="pt interaction" />
				<param name="closingTime" value="undefined" />
				<param name="earliestEndTime" value="undefined" />
				<param name="latestStartTime" value="undefined" />
				<param name="minimalDuration" value="undefined" />
				<param name="openingTime" value="undefined" />
				<param name="priority" value="1.0" />
				<param name="scoringThisActivityAtAll" value="false" />
				<param name="typicalDuration" value="undefined" />
				<param name="typicalDurationScoreComputation" value="relative" />
			</parameterset>
			<parameterset type="activityParams" >
				<param name="activityType" value="bike interaction" />
				<param name="closingTime" value="undefined" />
				<param name="earliestEndTime" value="undefined" />
				<param name="latestStartTime" value="undefined" />
				<param name="minimalDuration" value="undefined" />
				<param name="openingTime" value="undefined" />
				<param name="priority" value="1.0" />
				<param name="scoringThisActivityAtAll" value="false" />
				<param name="typicalDuration" value="undefined" />
				<param name="typicalDurationScoreComputation" value="relative" />
			</parameterset>
			<parameterset type="activityParams" >
				<param name="activityType" value="drt interaction" />
				<param name="closingTime" value="undefined" />
				<param name="earliestEndTime" value="undefined" />
				<param name="latestStartTime" value="undefined" />
				<param name="minimalDuration" value="undefined" />
				<param name="openingTime" value="undefined" />
				<param name="priority" value="1.0" />
				<param name="scoringThisActivityAtAll" value="false" />
				<param name="typicalDuration" value="undefined" />
				<param name="typicalDurationScoreComputation" value="relative" />
			</parameterset>
			<parameterset type="activityParams" >
				<param name="activityType" value="taxi interaction" />
				<param name="closingTime" value="undefined" />
				<param name="earliestEndTime" value="undefined" />
				<param name="latestStartTime" value="undefined" />
				<param name="minimalDuration" value="undefined" />
				<param name="openingTime" value="undefined" />
				<param name="priority" value="1.0" />
				<param name="scoringThisActivityAtAll" value="false" />
				<param name="typicalDuration" value="undefined" />
				<param name="typicalDurationScoreComputation" value="relative" />
			</parameterset>
			<parameterset type="activityParams" >
				<param name="activityType" value="other interaction" />
				<param name="closingTime" value="undefined" />
				<param name="earliestEndTime" value="undefined" />
				<param name="latestStartTime" value="undefined" />
				<param name="minimalDuration" value="undefined" />
				<param name="openingTime" value="undefined" />
				<param name="priority" value="1.0" />
				<param name="scoringThisActivityAtAll" value="false" />
				<param name="typicalDuration" value="undefined" />
				<param name="typicalDurationScoreComputation" value="relative" />
			</parameterset>
			<parameterset type="activityParams" >
				<param name="activityType" value="walk interaction" />
				<param name="closingTime" value="undefined" />
				<param name="earliestEndTime" value="undefined" />
				<param name="latestStartTime" value="undefined" />
				<param name="minimalDuration" value="undefined" />
				<param name="openingTime" value="undefined" />
				<param name="priority" value="1.0" />
				<param name="scoringThisActivityAtAll" value="false" />
				<param name="typicalDuration" value="undefined" />
				<param name="typicalDurationScoreComputation" value="relative" />
			</parameterset>
			<parameterset type="activityParams" >
				<param name="activityType" value="h" />
				<param name="closingTime" value="23:59:59" />
				<param name="earliestEndTime" value="undefined" />
				<param name="latestStartTime" value="undefined" />
				<param name="minimalDuration" value="08:00:00" />
				<param name="openingTime" value="00:00:00" />
				<param name="priority" value="1.0" />
				<param name="scoringThisActivityAtAll" value="true" />
				<param name="typicalDuration" value="08:00:00" />
				<param name="typicalDurationScoreComputation" value="relative" />
			</parameterset>
			<parameterset type="activityParams" >
				<param name="activityType" value="w" />
				<param name="closingTime" value="23:59:59" />
				<param name="earliestEndTime" value="undefined" />
				<param name="latestStartTime" value="undefined" />
				<param name="minimalDuration" value="06:00:00" />
				<param name="openingTime" value="08:00:00" />
				<param name="priority" value="1.0" />
				<param name="scoringThisActivityAtAll" value="true" />
				<param name="typicalDuration" value="06:00:00" />
				<param name="typicalDurationScoreComputation" value="relative" />
			</parameterset>
			<parameterset type="activityParams" >
				<param name="activityType" value="freefloating interaction" />
				<param name="closingTime" value="00:00:00" />
				<param name="earliestEndTime" value="undefined" />
				<param name="latestStartTime" value="undefined" />
				<param name="minimalDuration" value="00:00:00" />
				<param name="openingTime" value="08:00:00" />
				<param name="priority" value="1.0" />
				<param name="scoringThisActivityAtAll" value="true" />
				<param name="typicalDuration" value="00:02:00" />
				<param name="typicalDurationScoreComputation" value="relative" />
			</parameterset>
			<parameterset type="activityParams" >
				<param name="activityType" value="oneway interaction" />
				<param name="closingTime" value="00:00:00" />
				<param name="earliestEndTime" value="undefined" />
				<param name="latestStartTime" value="undefined" />
				<param name="minimalDuration" value="00:00:00" />
				<param name="openingTime" value="08:00:00" />
				<param name="priority" value="1.0" />
				<param name="scoringThisActivityAtAll" value="true" />
				<param name="typicalDuration" value="00:02:00" />
				<param name="typicalDurationScoreComputation" value="relative" />
			</parameterset>
			<parameterset type="activityParams" >
				<param name="activityType" value="twoway interaction" />
				<param name="closingTime" value="00:00:00" />
				<param name="earliestEndTime" value="undefined" />
				<param name="latestStartTime" value="undefined" />
				<param name="minimalDuration" value="00:00:00" />
				<param name="openingTime" value="08:00:00" />
				<param name="priority" value="1.0" />
				<param name="scoringThisActivityAtAll" value="true" />
				<param name="typicalDuration" value="00:02:00" />
				<param name="typicalDurationScoreComputation" value="relative" />
			</parameterset>
			<parameterset type="modeParams" >
				<!-- [utils] alternative-specific constant.  Normally per trip, but that is probably buggy for multi-leg trips. -->
				<param name="constant" value="-0.4" />
				<!-- [money] daily monetary constant. default=0 to be backwards compatible -->
				<param name="dailyMonetaryConstant" value="0.0" />
				<!-- [utils] daily utility constant. default=0 to be backwards compatible -->
				<param name="dailyUtilityConstant" value="0.0" />
				<!-- [utils/m] utility of traveling (e.g. walking or driving) per m, normally negative.  this is on top of the time (dis)utility. -->
				<param name="marginalUtilityOfDistance_util_m" value="0.0" />
				<!-- [utils/hr] additional marginal utility of traveling.  normally negative.  this comes on top of the opportunity cost of time -->
				<param name="marginalUtilityOfTraveling_util_hr" value="-6.0" />
				<param name="mode" value="car" />
				<!-- [unit_of_money/m] conversion of distance into money. Normally negative. -->
				<param name="monetaryDistanceRate" value="0.0" />
			</parameterset>
			<parameterset type="modeParams" >
				<param name="constant" value="-4.0" />
				<param name="dailyMonetaryConstant" value="0.0" />
				<param name="dailyUtilityConstant" value="0.0" />
				<param name="marginalUtilityOfDistance_util_m" value="0.0" />
				<param name="marginalUtilityOfTraveling_util_hr" value="-6.0" />
				<param name="mode" value="pt" />
				<param name="monetaryDistanceRate" value="0.0" />
			</parameterset>
			<parameterset type="modeParams" >
				<param name="constant" value="-0.0" />
				<param name="dailyMonetaryConstant" value="0.0" />
				<param name="dailyUtilityConstant" value="0.0" />
				<param name="marginalUtilityOfDistance_util_m" value="0.0" />
				<param name="marginalUtilityOfTraveling_util_hr" value="-6.0" />
				<param name="mode" value="walk" />
				<param name="monetaryDistanceRate" value="0.0" />
			</parameterset>
			<parameterset type="modeParams" >
				<param name="constant" value="-0.4" />
				<param name="dailyMonetaryConstant" value="0.0" />
				<param name="dailyUtilityConstant" value="0.0" />
				<param name="marginalUtilityOfDistance_util_m" value="0.0" />
				<param name="marginalUtilityOfTraveling_util_hr" value="-26.0" />
				<param name="mode" value="bike" />
				<param name="monetaryDistanceRate" value="0.0" />
			</parameterset>
			<parameterset type="modeParams" >
				<param name="constant" value="0.0" />
				<param name="dailyMonetaryConstant" value="0.0" />
				<param name="dailyUtilityConstant" value="0.0" />
				<param name="marginalUtilityOfDistance_util_m" value="0.0" />
				<param name="marginalUtilityOfTraveling_util_hr" value="-6.0" />
				<param name="mode" value="ride" />
				<param name="monetaryDistanceRate" value="0.0" />
			</parameterset>
			<parameterset type="modeParams" >
				<param name="constant" value="0.0" />
				<param name="dailyMonetaryConstant" value="0.0" />
				<param name="dailyUtilityConstant" value="0.0" />
				<param name="marginalUtilityOfDistance_util_m" value="0.0" />
				<param name="marginalUtilityOfTraveling_util_hr" value="-6.0" />
				<param name="mode" value="other" />
				<param name="monetaryDistanceRate" value="0.0" />
			</parameterset>
			<parameterset type="modeParams" >
				<param name="constant" value="0.0" />
				<param name="dailyMonetaryConstant" value="0.0" />
				<param name="dailyUtilityConstant" value="0.0" />
				<param name="marginalUtilityOfDistance_util_m" value="0.0" />
				<param name="marginalUtilityOfTraveling_util_hr" value="-6.0" />
				<param name="mode" value="access_walk_tw" />
				<param name="monetaryDistanceRate" value="0.0" />
			</parameterset>
			<parameterset type="modeParams" >
				<param name="constant" value="0.0" />
				<param name="dailyMonetaryConstant" value="0.0" />
				<param name="dailyUtilityConstant" value="0.0" />
				<param name="marginalUtilityOfDistance_util_m" value="0.0" />
				<param name="marginalUtilityOfTraveling_util_hr" value="-6.0" />
				<param name="mode" value="egress_walk_tw" />
				<param name="monetaryDistanceRate" value="0.0" />
			</parameterset>
			<parameterset type="modeParams" >
				<param name="constant" value="0.0" />
				<param name="dailyMonetaryConstant" value="0.0" />
				<param name="dailyUtilityConstant" value="0.0" />
				<param name="marginalUtilityOfDistance_util_m" value="0.0" />
				<param name="marginalUtilityOfTraveling_util_hr" value="-6.0" />
				<param name="mode" value="twoway_vehicle" />
				<param name="monetaryDistanceRate" value="0.0" />
			</parameterset>
			<parameterset type="modeParams" >
				<param name="constant" value="0.0" />
				<param name="dailyMonetaryConstant" value="0.0" />
				<param name="dailyUtilityConstant" value="0.0" />
				<param name="marginalUtilityOfDistance_util_m" value="0.0" />
				<param name="marginalUtilityOfTraveling_util_hr" value="0.0" />
				<param name="mode" value="access_walk_ff" />
				<param name="monetaryDistanceRate" value="0.0" />
			</parameterset>
			<parameterset type="modeParams" >
				<param name="constant" value="0.0" />
				<param name="dailyMonetaryConstant" value="0.0" />
				<param name="dailyUtilityConstant" value="0.0" />
				<param name="marginalUtilityOfDistance_util_m" value="0.0" />
				<param name="marginalUtilityOfTraveling_util_hr" value="0.0" />
				<param name="mode" value="egress_walk_ff" />
				<param name="monetaryDistanceRate" value="0.0" />
			</parameterset>
			<parameterset type="modeParams" >
				<param name="constant" value="0.0" />
				<param name="dailyMonetaryConstant" value="0.0" />
				<param name="dailyUtilityConstant" value="0.0" />
				<param name="marginalUtilityOfDistance_util_m" value="0.0" />
				<param name="marginalUtilityOfTraveling_util_hr" value="0.0" />
				<param name="mode" value="freefloating_vehicle" />
				<param name="monetaryDistanceRate" value="0.0" />
			</parameterset>
			<parameterset type="modeParams" >
				<param name="constant" value="0.0" />
				<param name="dailyMonetaryConstant" value="0.0" />
				<param name="dailyUtilityConstant" value="0.0" />
				<param name="marginalUtilityOfDistance_util_m" value="0.0" />
				<param name="marginalUtilityOfTraveling_util_hr" value="0.0" />
				<param name="mode" value="access_walk_ow" />
				<param name="monetaryDistanceRate" value="0.0" />
			</parameterset>
			<parameterset type="modeParams" >
				<param name="constant" value="0.0" />
				<param name="dailyMonetaryConstant" value="0.0" />
				<param name="dailyUtilityConstant" value="0.0" />
				<param name="marginalUtilityOfDistance_util_m" value="0.0" />
				<param name="marginalUtilityOfTraveling_util_hr" value="0.0" />
				<param name="mode" value="egress_walk_ow" />
				<param name="monetaryDistanceRate" value="0.0" />
			</parameterset>
			<parameterset type="modeParams" >
				<param name="constant" value="0.0" />
				<param name="dailyMonetaryConstant" value="0.0" />
				<param name="dailyUtilityConstant" value="0.0" />
				<param name="marginalUtilityOfDistance_util_m" value="0.0" />
				<param name="marginalUtilityOfTraveling_util_hr" value="0.0" />
				<param name="mode" value="oneway_vehicle" />
				<param name="monetaryDistanceRate" value="0.0" />
			</parameterset>
		</parameterset>
	</module>
	<module name="plans" >
		<!-- String: minOfDurationAndEndTime tryEndTimeThenDuration endTimeOnly. Anything besides minOfDurationAndEndTime will internally use a different (simpler) version of the TimeAllocationMutator. -->
		<param name="activityDurationInterpretation" value="tryEndTimeThenDuration" />
		<!-- Possible values: reject, useMainModeIdentifier -->
		<param name="handlingOfPlansWithoutRoutingMode" value="reject" />
		<!-- The Coordinates Reference System in which the coordinates are expressed in the input file. At import, the coordinates will be converted to the coordinate system defined in "global", and willbe converted back at export. If not specified, no conversion happens. -->
		<param name="inputCRS" value="null" />
		<param name="inputPersonAttributesFile" value="null" />
		<param name="inputPlansFile" value="/Users/cptnemo2005/IdeaProjects/matsim-examples-tri/src/test/input/10persons.xml" />
		<param name="insistingOnUsingDeprecatedPersonAttributeFile" value="false" />
		<!-- Defines how routes are stored in memory. Currently supported: LinkNetworkRoute, CompressedNetworkRoute. -->
		<param name="networkRouteType" value="LinkNetworkRoute" />
		<!-- (not tested) will remove plan attributes that are presumably not used, such as activityStartTime. default=false. Use with Caution! -->
		<param name="removingUnnecessaryPlanAttributes" value="false" />
	</module>
	<module name="planscalcroute" >
		<!-- Some typical teleportation routing params are set by default, such as for walk and bike.  Setting this switch to "true" will clear them.  Note that this will also clear settings for helper modes such as for non_network_walk -->
		<param name="clearDefaultTeleportedModeParams" value="false" />
		<!-- All the modes for which the router is supposed to generate network routes (like car) -->
		<param name="networkModes" value="car" />
		<!-- strength of the randomness for the utility of money in routing under toll.  Leads to Pareto-optimal route with randomly drawn money-vs-other-attributes tradeoff. Technically the width parameter of a log-normal distribution. 3.0 seems to be a good value.  -->
		<param name="routingRandomness" value="0.0" />
		<parameterset type="teleportedModeParameters" >
			<param name="beelineDistanceFactor" value="1.3" />
			<param name="mode" value="bike" />
			<!-- Free-speed factor for a teleported mode. Travel time = teleportedModeFreespeedFactor * <freespeed car travel time>. Insert a line like this for every such mode. Please do not set teleportedModeFreespeedFactor as well as teleportedModeSpeed for the same mode, but if you do, +teleportedModeFreespeedFactor wins over teleportedModeSpeed. -->
			<param name="teleportedModeFreespeedFactor" value="null" />
			<!-- Speed for a teleported mode. Travel time = (<beeline distance> * beelineDistanceFactor) / teleportedModeSpeed. Insert a line like this for every such mode. -->
			<param name="teleportedModeSpeed" value="4.166666666666667" />
		</parameterset>
		<parameterset type="teleportedModeParameters" >
			<param name="beelineDistanceFactor" value="1.3" />
			<param name="mode" value="undefined" />
			<param name="teleportedModeFreespeedFactor" value="null" />
			<param name="teleportedModeSpeed" value="13.88888888888889" />
		</parameterset>
		<parameterset type="teleportedModeParameters" >
			<param name="beelineDistanceFactor" value="1.3" />
			<param name="mode" value="pt" />
			<param name="teleportedModeFreespeedFactor" value="null" />
			<param name="teleportedModeSpeed" value="4.5" />
		</parameterset>
		<parameterset type="teleportedModeParameters" >
			<param name="beelineDistanceFactor" value="1.3" />
			<param name="mode" value="non_network_walk" />
			<param name="teleportedModeFreespeedFactor" value="null" />
			<param name="teleportedModeSpeed" value="0.8333333333333" />
		</parameterset>
		<parameterset type="teleportedModeParameters" >
			<param name="beelineDistanceFactor" value="1.3" />
			<param name="mode" value="walk" />
			<param name="teleportedModeFreespeedFactor" value="null" />
			<param name="teleportedModeSpeed" value="0.833333333333333" />
		</parameterset>
	</module>
	<module name="ptCounts" >
		<!-- factor by which to re-scale the simulated values.  necessary when simulation runs with something different from 100%.  needs to be adapted manually -->
		<param name="countsScaleFactor" value="1.0" />
		<!-- distance to distanceFilterCenterNode to include counting stations. The unit of distance is the Euclidean distance implied by the coordinate system -->
		<param name="distanceFilter" value="null" />
		<!-- node id for center node of distance filter -->
		<param name="distanceFilterCenterNode" value="null" />
		<!-- input file containing the alighting (getting off) counts for pt -->
		<param name="inputAlightCountsFile" value="null" />
		<!-- input file containing the boarding (getting on) counts for pt -->
		<param name="inputBoardCountsFile" value="null" />
		<!-- input file containing the occupancy counts for pt -->
		<param name="inputOccupancyCountsFile" value="null" />
		<!-- possible values: `html', `kml', `txt', `all' -->
		<param name="outputformat" value="null" />
		<!-- every how many iterations (starting with 0) counts comparisons are generated -->
		<param name="ptCountsInterval" value="10" />
	</module>
	<module name="qsim" >
		<param name="endTime" value="00:00:00" />
		<param name="flowCapacityFactor" value="1.0" />
		<!-- decides if waiting vehicles enter the network after or before the already driving vehicles were moved. Default: false -->
		<param name="insertingWaitingVehiclesBeforeDrivingVehicles" value="true" />
		<!-- If link dynamics is set as SeepageQ, set to false if all seep modes should perform seepage. Default is true (better option). -->
		<param name="isRestrictingSeepage" value="true" />
		<!-- If link dynamics is set as SeepageQ, set to true if seep mode do not consumes any space on the link. Default is false. -->
		<param name="isSeepModeStorageFree" value="false" />
		<!-- default: FIFO; options: FIFO PassingQ SeepageQ -->
		<param name="linkDynamics" value="FIFO" />
		<!-- The (initial) width of the links of the network. Use positive floating point values. This is used only for visualisation. -->
		<param name="linkWidth" value="30.0" />
		<!-- [comma-separated list] Defines which modes are congested modes. Technically, these are the modes that the departure handler of the netsimengine handles.  Effective cell size, effective lane width, flow capacity factor, and storage capacity factor need to be set with diligence.  Need to be vehicular modes to make sense. -->
		<param name="mainMode" value="car,oneway_vehicle,twoway_vehicle,freefloating_vehicle" />
		<!-- Shortens a link in the visualization, i.e. its start and end point are moved into towards the center. Does not affect traffic flow.  -->
		<param name="nodeOffset" value="0.0" />
		<!-- Number of threads used for the QSim.  Note that this setting is independent from the "global" threads setting.  In contrast to earlier versions, the non-parallel special version is no longer there. -->
		<param name="numberOfThreads" value="1" />
		<!-- Boolean. `true': stuck vehicles are removed, aborting the plan; `false': stuck vehicles are forced into the next link. `false' is probably the better choice. -->
		<param name="removeStuckVehicles" value="false" />
		<!-- If link dynamics is set as SeepageQ, set a seep mode. Default is bike. -->
		<param name="seepMode" value="bike" />
		<!-- Possible values: minOfEndtimeAndMobsimFinished, onlyUseEndtime -->
		<param name="simEndtimeInterpretation" value="null" />
		<!-- Options: maxOfStarttimeAndEarliestActivityEnd onlyUseStarttime  -->
		<param name="simStarttimeInterpretation" value="onlyUseStarttime" />
		<!-- snapshotStyle. One of: equiDist queue withHoles withHolesAndShowHoles kinematicWaves  -->
		<param name="snapshotStyle" value="equiDist" />
		<param name="snapshotperiod" value="00:00:00" />
		<param name="startTime" value="undefined" />
		<param name="storageCapacityFactor" value="10.0" />
		<!-- time in seconds.  Time after which the frontmost vehicle on a link is called `stuck' if it does not move. -->
		<param name="stuckTime" value="10.0" />
		<param name="timeStepSize" value="00:00:01" />
		<!-- options: queue withHoles kinematicWaves  -->
		<param name="trafficDynamics" value="queue" />
		<!-- Set this parameter to true if lanes should be used, false if not. -->
		<param name="useLanes" value="false" />
		<!-- If a route does not reference a vehicle, agents will use the vehicle with the same id as their own. -->
		<param name="usePersonIdForMissingVehicleId" value="true" />
		<!-- If false, the qsim accumulates fractional flows up to one flow unit in every time step.  If true, flows are updated only if an agent wants to enter the link or an agent is added to buffer. Default is true. -->
		<param name="usingFastCapacityUpdate" value="true" />
		<!-- Defines what happens if an agent wants to depart, but the specified vehicle is not available. One of: teleport wait exception  -->
		<param name="vehicleBehavior" value="teleport" />
		<!-- If vehicles should all be the same default vehicle, or come from the vehicles file, or something else.  Possible values:  defaultVehicle modeVehicleTypesFromVehiclesData fromVehiclesData -->
		<param name="vehiclesSource" value="defaultVehicle" />
	</module>
	<module name="strategy" >
		<!-- the external executable will be called with a config file as argument.  This is the pathname to a possible skeleton config, to which additional information will be added.  Can be null. -->
		<param name="ExternalExeConfigTemplate" value="null" />
		<!-- time out value (in seconds) after which matsim will consider the external strategy as failed -->
		<param name="ExternalExeTimeOut" value="3600" />
		<!-- root directory for temporary files generated by the external executable. Provided as a service; I don't think this is used by MATSim. -->
		<param name="ExternalExeTmpFileRootDir" value="null" />
		<!-- fraction of iterations where innovative strategies are switched off.  Something like 0.8 should be good.  E.g. if you run from iteration 400 to iteration 500, innovation is switched off at iteration 480 -->
		<param name="fractionOfIterationsToDisableInnovation" value="Infinity" />
		<!-- maximum number of plans per agent.  ``0'' means ``infinity''.  Currently (2010), ``5'' is a good number -->
		<param name="maxAgentPlanMemorySize" value="5" />
		<!-- strategyName of PlanSelector for plans removal.  Possible defaults: WorstPlanSelector SelectRandom SelectExpBetaForRemoval ChangeExpBetaForRemoval PathSizeLogitSelectorForRemoval . The current default, WorstPlanSelector is not a good choice from a discrete choice theoretical perspective. Alternatives, however, have not been systematically tested. kai, feb'12 -->
		<param name="planSelectorForRemoval" value="WorstPlanSelector" />
		<parameterset type="strategysettings" >
			<!-- iteration after which strategy will be disabled.  most useful for ``innovative'' strategies (new routes, new times, ...). Normally, better use fractionOfIterationsToDisableInnovation -->
			<param name="disableAfterIteration" value="-1" />
			<!-- path to external executable (if applicable) -->
			<param name="executionPath" value="null" />
			<!-- strategyName of strategy.  Possible default names: SelectRandom BestScore KeepLastSelected ChangeExpBeta SelectExpBeta SelectPathSizeLogit      (selectors), ReRouteTimeAllocationMutatorTimeAllocationMutator_ReRouteChangeSingleTripModeChangeTripModeSubtourModeChoice (innovative strategies). -->
			<param name="strategyName" value="SelectExpBeta" />
			<!-- subpopulation to which the strategy applies. "null" refers to the default population, that is, the set of persons for which no explicit subpopulation is defined (ie no subpopulation attribute) -->
			<param name="subpopulation" value="null" />
			<!-- weight of a strategy: for each agent, a strategy will be selected with a probability proportional to its weight -->
			<param name="weight" value="0.0" />
		</parameterset>
		<parameterset type="strategysettings" >
			<param name="disableAfterIteration" value="1000" />
			<param name="executionPath" value="null" />
			<param name="strategyName" value="RandomTripToCarsharingStrategy" />
			<param name="subpopulation" value="null" />
			<param name="weight" value="0.5" />
		</parameterset>
		<parameterset type="strategysettings" >
			<param name="disableAfterIteration" value="1000" />
			<param name="executionPath" value="null" />
			<param name="strategyName" value="CarsharingSubtourModeChoiceStrategy" />
			<param name="subpopulation" value="null" />
			<param name="weight" value="1.0" />
		</parameterset>
		<parameterset type="strategysettings" >
			<param name="disableAfterIteration" value="1000" />
			<param name="executionPath" value="null" />
			<param name="strategyName" value="SubtourModeChoice" />
			<param name="subpopulation" value="null" />
			<param name="weight" value="1.0" />
		</parameterset>
	</module>
	<module name="subtourModeChoice" >
		<!-- Only for backwards compatibility.  Defines if only trips from modes list should change mode, or all trips.  Options: fromAllModesToSpecifiedModes fromSpecifiedModesToSpecifiedModes  -->
		<param name="behavior" value="fromAllModesToSpecifiedModes" />
		<!-- Defines the chain-based modes, seperated by commas -->
		<param name="chainBasedModes" value="car,bike" />
		<!-- Defines whether car availability must be considered or not. A agent has no car only if it has no license, or never access to a car -->
		<param name="considerCarAvailability" value="true" />
		<!-- Defines all the modes available, including chain-based modes, seperated by commas -->
		<param name="modes" value="car,bike,pt,walk" />
	</module>
	<module name="transit" >
		<!-- The Coordinates Reference System in which the coordinates are expressed in the input file. At import, the coordinates will be converted to the coordinate system defined in "global", and willbe converted back at export. If not specified, no conversion happens. -->
		<param name="inputScheduleCRS" value="null" />
		<param name="insistingOnUsingDeprecatedAttributeFiles" value="false" />
		<!-- Optional input file containing additional attributes for transit lines, stored as ObjectAttributes. -->
		<param name="transitLinesAttributesFile" value="null" />
		<!-- Comma-separated list of transportation modes that are handled as transit. Defaults to 'pt'. -->
		<param name="transitModes" value="pt" />
		<!-- Input file containing the transit schedule to be simulated. -->
		<param name="transitScheduleFile" value="null" />
		<!-- Optional input file containing additional attributes for transit stop facilities, stored as ObjectAttributes. -->
		<param name="transitStopsAttributesFile" value="null" />
		<!-- Set this parameter to true if transit should be simulated, false if not. -->
		<param name="useTransit" value="false" />
		<param name="usingTransitInMobsim" value="true" />
		<!-- Input file containing the vehicles used by the departures in the transit schedule. -->
		<param name="vehiclesFile" value="null" />
	</module>
	<module name="transitRouter" >
		<!-- additional time the router allocates when a line switch happens. Can be interpreted as a 'safety' time that agents need to safely transfer from one line to another -->
		<param name="additionalTransferTime" value="0.0" />
		<!-- Factor with which direct walk generalized cost is multiplied before it is compared to the pt generalized cost.  Set to a very high value to reduce direct walk results. -->
		<param name="directWalkFactor" value="1.0" />
		<!-- step size to increase searchRadius if no stops are found -->
		<param name="extensionRadius" value="200.0" />
		<!-- maximum beeline distance between stops that agents could transfer to by walking -->
		<param name="maxBeelineWalkConnectionDistance" value="100.0" />
		<!-- the radius in which stop locations are searched, given a start or target coordinate -->
		<param name="searchRadius" value="1000.0" />
	</module>
	<module name="travelTimeCalculator" >
		<!-- (only for backwards compatibility; only used if separateModes==false && + filterModes==true)  Transport modes that will be respected by the travel time collector. 'car' is default which includes also buses from the pt simulation module. -->
		<param name="analyzedModes" value="car" />
		<param name="calculateLinkToLinkTravelTimes" value="false" />
		<param name="calculateLinkTravelTimes" value="true" />
		<!-- (only for backwards compatiblity; only used if separateModes==false)  Only modes included in analyzedModes are included. -->
		<param name="filterModes" value="false" />
		<!-- The lenght (in sec) of the time period that is splited into time bins; an additional time bin is created to aggregate all travel times collected after maxTime -->
		<param name="maxTime" value="108000" />
		<!-- (only for backwards compatibility) If false, link travel times are measured and aggregated over all vehicles using the link. -->
		<param name="separateModes" value="true" />
		<!-- How to deal with congested time bins that have no link entry events. `optimistic' assumes free speed (too optimistic); 'experimental_LastMile' is experimental and probably too pessimistic. -->
		<param name="travelTimeAggregator" value="optimistic" />
		<!-- The size of the time bin (in sec) into which the link travel times are aggregated for the router -->
		<param name="travelTimeBinSize" value="900" />
		<!-- possible values: TravelTimeCalculatorArray TravelTimeCalculatorHashMap  -->
		<param name="travelTimeCalculator" value="TravelTimeCalculatorArray" />
		<!-- How to deal with link entry times at different positions during the time bin. Currently supported: average, linearinterpolation -->
		<param name="travelTimeGetter" value="average" />
	</module>
	<module name="vehicles" >
		<param name="vehiclesFile" value="null" />
	</module>
	<module name="vspExperimental" >
		<!-- (do not use except of you have to) There was a problem with pt interaction scoring.  Some people solved it by overwriting the parameters of the pt interaction activity type.  Doing this now throws an Exception.  If you still insist on doing this, set the following to true. -->
		<param name="isAbleToOverwritePtInteractionParams" value="false" />
		<param name="isGeneratingBoardingDeniedEvent" value="false" />
		<!-- if an approximation of the opportunity cost of time is included into the radius calculation for location choice.`true' will be faster, but it is an approximation.  Default is `true'; `false' is available for backwards compatibility. -->
		<param name="isUsingOpportunityCostOfTimeForLocationChoice" value="true" />
		<param name="logitScaleParamForPlansRemoval" value="1.0" />
		<!-- Options: | ignore | info | warn | abort | .  When violating VSP defaults, this results in nothing, logfile infos, logfile warnings, or aborts.  Members of VSP should use `abort' or talk to kai. -->
		<param name="vspDefaultsCheckingLevel" value="ignore" />
		<!-- if true then writes output_events in output directory.  default is `false'. Will only work when lastIteration is multiple of events writing interval -->
		<param name="writingOutputEvents" value="true" />
	</module>

</config>

2020-09-17T16:26:21,186  INFO ControlerUtils:84 Complete config dump done.
2020-09-17T16:26:21,186  INFO ControlerUtils:85 Checking consistency of config...
2020-09-17T16:26:21,186  WARN ControlerConfigGroup:404 setting overwriting behavior to overwriteExistingFiles
2020-09-17T16:26:21,186  WARN ControlerConfigGroup:405 this is not recommended, as it might result in a directory containing output from several model runs
2020-09-17T16:26:21,186  WARN ControlerConfigGroup:406 prefer the options deleteDirectoryIfExists or failIfDirectoryExists
2020-09-17T16:26:21,186  INFO VspConfigConsistencyCheckerImpl:59 NOT running vsp config consistency check because vsp defaults checking level is set to IGNORE
2020-09-17T16:26:21,190  INFO ControlerUtils:87 Checking consistency of config done.
2020-09-17T16:26:21,191  WARN XY2LinksForFacilities:50 There is no link for at least a facility. Assigning links for such facilities from coords.
2020-09-17T16:26:21,191  WARN XY2LinksForFacilities:51  This message given only once.
2020-09-17T16:26:21,192  INFO NetworkImpl:422 building QuadTree for nodes: xrange(-501.0,1501.0); yrange(-501.0,501.0)
2020-09-17T16:26:21,192  INFO NetworkImpl:431 Building QuadTree took 0.001 seconds.
2020-09-17T16:26:21,195  WARN PrepareForSimImpl:222 'usePersonIdForMissingVehicleId' is deprecated. It will be removed soon.
2020-09-17T16:26:21,199  INFO Counter:69 [VehiclesImpl] added vehicle # 1
2020-09-17T16:26:21,200  INFO Counter:69 [VehiclesImpl] added vehicle # 2
2020-09-17T16:26:21,200  INFO Counter:69 [VehiclesImpl] added vehicle # 4
2020-09-17T16:26:21,200  INFO Counter:69 [VehiclesImpl] added vehicle # 8
2020-09-17T16:26:21,200  INFO Counter:69 [VehiclesImpl] added vehicle # 16
2020-09-17T16:26:21,201  INFO Counter:69 [VehiclesImpl] added vehicle # 32
2020-09-17T16:26:21,208  INFO NetworkImpl:163  node # 1
2020-09-17T16:26:21,208  INFO NetworkImpl:163  node # 4
2020-09-17T16:26:21,208  INFO NetworkImpl:159  link # 1
2020-09-17T16:26:21,209  INFO NetworkImpl:159  link # 4
2020-09-17T16:26:21,209  INFO NetworkImpl:159  link # 16
2020-09-17T16:26:21,222  INFO PreProcessDijkstra:118 nodes in dead ends: 10 (total nodes: 11). Done in 1 ms
2020-09-17T16:26:21,223  INFO PreProcessLandmarks:112 Putting landmarks on network...
2020-09-17T16:26:21,225  INFO LandmarkerPieSlices:96 Filling sectors...
2020-09-17T16:26:21,227  INFO LandmarkerPieSlices:163 There is no node in sector 0!
2020-09-17T16:26:21,227  INFO LandmarkerPieSlices:163 There is no node in sector 1!
2020-09-17T16:26:21,227  INFO LandmarkerPieSlices:163 There is no node in sector 2!
2020-09-17T16:26:21,227  INFO LandmarkerPieSlices:163 There is no node in sector 3!
2020-09-17T16:26:21,227  INFO LandmarkerPieSlices:163 There is no node in sector 4!
2020-09-17T16:26:21,227  INFO LandmarkerPieSlices:163 There is no node in sector 5!
2020-09-17T16:26:21,227  INFO LandmarkerPieSlices:163 There is no node in sector 6!
2020-09-17T16:26:21,228  INFO LandmarkerPieSlices:163 There is no node in sector 7!
2020-09-17T16:26:21,228  INFO LandmarkerPieSlices:163 There is no node in sector 8!
2020-09-17T16:26:21,228  INFO LandmarkerPieSlices:163 There is no node in sector 9!
2020-09-17T16:26:21,228  INFO LandmarkerPieSlices:163 There is no node in sector 10!
2020-09-17T16:26:21,228  INFO LandmarkerPieSlices:163 There is no node in sector 11!
2020-09-17T16:26:21,228  INFO LandmarkerPieSlices:163 There is no node in sector 12!
2020-09-17T16:26:21,228  INFO LandmarkerPieSlices:163 There is no node in sector 13!
2020-09-17T16:26:21,228  INFO LandmarkerPieSlices:163 There is no node in sector 14!
2020-09-17T16:26:21,232  INFO LandmarkerPieSlices:100 Reducing number of landmarks from 16 to 1...
2020-09-17T16:26:21,232  INFO LandmarkerPieSlices:107 Refining landmarks...
2020-09-17T16:26:21,232  INFO LandmarkerPieSlices:109 done
2020-09-17T16:26:21,234  INFO PreProcessLandmarks:115 done in 9 ms
2020-09-17T16:26:21,234  INFO PreProcessLandmarks:117 Initializing landmarks data
2020-09-17T16:26:21,234  INFO PreProcessLandmarks:129 Calculating distance from each node to each of the 16 landmarks using 2 threads...
2020-09-17T16:26:21,235  INFO PreProcessLandmarks:139 wait for landmarks Calculator to finish...
2020-09-17T16:26:21,238  INFO PreProcessLandmarks:163 done in 4 ms
2020-09-17T16:26:21,279  INFO Counter:69 [PersonPrepareForSim] handled person # 1
2020-09-17T16:26:21,279  INFO Counter:69 [PersonPrepareForSim] handled person # 2
2020-09-17T16:26:21,280  INFO Counter:69 [PersonPrepareForSim] handled person # 4
2020-09-17T16:26:21,281  INFO Counter:69 [PersonPrepareForSim] handled person # 8
2020-09-17T16:26:21,282  INFO Counter:74 [PersonPrepareForSim] handled person # 10
2020-09-17T16:26:21,282  INFO AbstractController:125 ###################################################
2020-09-17T16:26:21,283  INFO AbstractController:126 ### ITERATION 0 BEGINS
2020-09-17T16:26:21,283  INFO ControlerListenerManagerImpl:145 calling notifyIterationStarts on org.matsim.analysis.LegHistogramListener
2020-09-17T16:26:21,283  INFO ControlerListenerManagerImpl:145 calling notifyIterationStarts on org.matsim.analysis.LinkStatsControlerListener
2020-09-17T16:26:21,284  INFO ControlerListenerManagerImpl:145 calling notifyIterationStarts on org.matsim.contrib.carsharing.manager.CarsharingManagerNew
2020-09-17T16:26:21,696  INFO MatsimXmlParser:160 starting to parse xml from url file:/Users/cptnemo2005/IdeaProjects/matsim-examples-tri/src/test/input/freefloating_areas.xml ...
2020-09-17T16:26:21,698  INFO MatsimXmlParser:275 Trying to load file:/Users/cptnemo2005/IdeaProjects/matsim-examples-tri/src/test/input/src/main/resources/dtd/freefloating_areas_v1.dtd. In some cases (e.g. network interface up but no connection), this may take a bit.
2020-09-17T16:26:21,698  INFO MatsimXmlParser:290 java.io.FileNotFoundException: /Users/cptnemo2005/IdeaProjects/matsim-examples-tri/src/test/input/src/main/resources/dtd/freefloating_areas_v1.dtd (No such file or directory). May not be fatal, will try to load it locally.
2020-09-17T16:26:21,698  INFO MatsimXmlParser:312 Using local DTD from classpath:dtd/freefloating_areas_v1.dtd
2020-09-17T16:26:21,699  INFO Counter:69 reading freefloating area # 1
2020-09-17T16:26:21,713  INFO Counter:74 reading freefloating area # 1
2020-09-17T16:26:21,713  INFO MatsimXmlParser:147 starting to parse xml from file /Users/cptnemo2005/IdeaProjects/matsim-examples-tri/src/test/input/CarsharingStations.xml ...
2020-09-17T16:26:21,714  INFO IOUtils:184 Resolved /Users/cptnemo2005/IdeaProjects/matsim-examples-tri/src/test/input/CarsharingStations.xml to /Users/cptnemo2005/IdeaProjects/matsim-examples-tri/src/test/input/CarsharingStations.xml
2020-09-17T16:26:21,715  INFO MatsimXmlParser:275 Trying to load file:///Users/cptnemo2005/IdeaProjects/matsim-examples-tri/src/main/resources/dtd/CarsharingStations.dtd. In some cases (e.g. network interface up but no connection), this may take a bit.
2020-09-17T16:26:21,715  INFO MatsimXmlParser:290 java.io.FileNotFoundException: /Users/cptnemo2005/IdeaProjects/matsim-examples-tri/src/main/resources/dtd/CarsharingStations.dtd (No such file or directory). May not be fatal, will try to load it locally.
2020-09-17T16:26:21,715  INFO MatsimXmlParser:312 Using local DTD from classpath:dtd/CarsharingStations.dtd
2020-09-17T16:26:21,717  INFO ControlerListenerManagerImpl:145 calling notifyIterationStarts on org.matsim.core.replanning.ReplanningContextImpl
2020-09-17T16:26:21,717  INFO ControlerListenerManagerImpl:145 calling notifyIterationStarts on org.matsim.core.scoring.ScoringFunctionsForPopulation$1
2020-09-17T16:26:21,731  INFO ControlerListenerManagerImpl:145 calling notifyIterationStarts on org.matsim.core.scoring.ExperiencedPlansServiceImpl$1
2020-09-17T16:26:21,731  INFO ControlerListenerManagerImpl:148 [it.0] all ControlerIterationStartsListeners called.
2020-09-17T16:26:21,732  INFO ControlerListenerManagerImpl:224 calling notifyBeforeMobsim on org.matsim.core.controler.corelisteners.EventsHandlingImpl
2020-09-17T16:26:21,732  INFO EventsManagerImpl:184 resetting Event-Handlers
2020-09-17T16:26:21,732  INFO EventsManagerImpl:191   org.matsim.core.trafficmonitoring.TravelTimeCalculator
2020-09-17T16:26:21,733  INFO EventsManagerImpl:191   org.matsim.core.scoring.EventsToLegsAndActivities
2020-09-17T16:26:21,733  INFO EventsManagerImpl:191   org.matsim.analysis.VolumesAnalyzer
2020-09-17T16:26:21,733  INFO EventsManagerImpl:191   org.matsim.contrib.carsharing.manager.demand.DemandHandler
2020-09-17T16:26:21,733  INFO EventsManagerImpl:191   org.matsim.core.scoring.ScoringFunctionsForPopulation
2020-09-17T16:26:21,733  INFO EventsManagerImpl:191   org.matsim.analysis.LegHistogram
2020-09-17T16:26:21,733  INFO EventsManagerImpl:191   org.matsim.analysis.CalcLegTimes
2020-09-17T16:26:21,733  INFO EventsManagerImpl:191   org.matsim.contrib.carsharing.events.handlers.PersonArrivalDepartureHandler
2020-09-17T16:26:21,737  INFO EventsManagerImpl:158 adding Event-Handler: org.matsim.core.events.algorithms.EventWriterXML
2020-09-17T16:26:21,737  INFO EventsManagerImpl:162   org.matsim.core.events.algorithms.EventWriter
2020-09-17T16:26:21,737  INFO EventsManagerImpl:162   org.matsim.core.events.handler.BasicEventHandler
2020-09-17T16:26:21,737  INFO EventsManagerImpl:221     > org.matsim.api.core.v01.events.Event
2020-09-17T16:26:21,737  INFO EventsManagerImpl:170 
2020-09-17T16:26:21,737  INFO EventsManagerImpl:158 adding Event-Handler: org.matsim.core.events.algorithms.EventWriterXML
2020-09-17T16:26:21,737  INFO EventsManagerImpl:162   org.matsim.core.events.algorithms.EventWriter
2020-09-17T16:26:21,737  INFO EventsManagerImpl:162   org.matsim.core.events.handler.BasicEventHandler
2020-09-17T16:26:21,737  INFO EventsManagerImpl:221     > org.matsim.api.core.v01.events.Event
2020-09-17T16:26:21,737  INFO EventsManagerImpl:170 
2020-09-17T16:26:21,737  INFO ControlerListenerManagerImpl:224 calling notifyBeforeMobsim on org.matsim.core.controler.corelisteners.PlansDumpingImpl
2020-09-17T16:26:21,738  INFO PlansDumpingImpl:76 dumping plans...
2020-09-17T16:26:21,744  INFO Counter:69 [PopulationWriter] dumped person # 1
2020-09-17T16:26:21,745  INFO Counter:69 [PopulationWriter] dumped person # 2
2020-09-17T16:26:21,745  INFO Counter:69 [PopulationWriter] dumped person # 4
2020-09-17T16:26:21,746  INFO Counter:69 [PopulationWriter] dumped person # 8
2020-09-17T16:26:21,747  INFO PopulationWriter:144 Population written to: test/output/RunCarSharingIt/test/ITERS/it.0/run1.0.plans.xml.gz
2020-09-17T16:26:21,748  INFO Counter:74 [PopulationWriter] dumped person # 10
2020-09-17T16:26:21,748  INFO PlansDumpingImpl:93 finished plans dump.
2020-09-17T16:26:21,749  INFO ControlerListenerManagerImpl:229 calling notifyBeforeMobsim on org.matsim.core.population.VspPlansCleaner
2020-09-17T16:26:21,749  INFO ControlerListenerManagerImpl:232 [it.0] all ControlerBeforeMobsimListeners called.
2020-09-17T16:26:21,751  INFO Counter:69 [PersonPrepareForSim] handled person # 4
2020-09-17T16:26:21,751  INFO Counter:69 [PersonPrepareForSim] handled person # 2
2020-09-17T16:26:21,751  INFO Counter:69 [PersonPrepareForSim] handled person # 1
2020-09-17T16:26:21,751  INFO Counter:69 [PersonPrepareForSim] handled person # 8
2020-09-17T16:26:21,751  INFO Counter:74 [PersonPrepareForSim] handled person # 10
2020-09-17T16:26:21,817  INFO MobsimListenerManager:49 calling addQueueSimulationListener
2020-09-17T16:26:21,818  INFO MobsimListenerManager:53   assigned class org.matsim.core.mobsim.framework.listeners.MobsimListener to interface org.matsim.core.mobsim.framework.listeners.MobsimListener
2020-09-17T16:26:21,818  INFO MobsimListenerManager:53   assigned class org.matsim.core.mobsim.framework.listeners.MobsimListener to interface org.matsim.contrib.dvrp.trafficmonitoring.DvrpOfflineTravelTimeEstimator
2020-09-17T16:26:21,818  INFO MobsimListenerManager:53   assigned class org.matsim.core.mobsim.framework.listeners.MobsimListener to interface org.matsim.core.mobsim.framework.listeners.MobsimBeforeCleanupListener
2020-09-17T16:26:21,818  INFO MobsimListenerManager:49 calling addQueueSimulationListener
2020-09-17T16:26:21,818  INFO MobsimListenerManager:53   assigned class org.matsim.core.mobsim.framework.listeners.MobsimListener to interface org.matsim.vis.snapshotwriters.SnapshotWriterManager
2020-09-17T16:26:21,818  INFO MobsimListenerManager:53   assigned class org.matsim.core.mobsim.framework.listeners.MobsimListener to interface org.matsim.core.mobsim.framework.listeners.MobsimListener
2020-09-17T16:26:21,818  INFO MobsimListenerManager:53   assigned class org.matsim.core.mobsim.framework.listeners.MobsimListener to interface org.matsim.core.mobsim.framework.listeners.MobsimInitializedListener
2020-09-17T16:26:21,818  INFO MobsimListenerManager:53   assigned class org.matsim.core.mobsim.framework.listeners.MobsimListener to interface org.matsim.core.mobsim.framework.listeners.MobsimAfterSimStepListener
2020-09-17T16:26:21,818  INFO MobsimListenerManager:53   assigned class org.matsim.core.mobsim.framework.listeners.MobsimListener to interface org.matsim.core.mobsim.framework.listeners.MobsimBeforeCleanupListener
2020-09-17T16:26:21,844  INFO QSimProvider:102 Added MobsimEngine class org.matsim.core.mobsim.qsim.ActivityEngineDefaultImpl
2020-09-17T16:26:21,844  INFO QSimProvider:108 Added Activityhandler class org.matsim.core.mobsim.qsim.ActivityEngineDefaultImpl
2020-09-17T16:26:21,845  INFO QSimProvider:114 Added DepartureHandler class org.matsim.core.mobsim.qsim.qnetsimengine.VehicularDepartureHandler
2020-09-17T16:26:21,845  INFO QSimProvider:102 Added MobsimEngine class org.matsim.core.mobsim.qsim.qnetsimengine.QNetsimEngineWithThreadpool
2020-09-17T16:26:21,845  INFO QSimProvider:102 Added MobsimEngine class org.matsim.core.mobsim.qsim.DefaultTeleportationEngine
2020-09-17T16:26:21,845  INFO QSimProvider:114 Added DepartureHandler class org.matsim.core.mobsim.qsim.DefaultTeleportationEngine
2020-09-17T16:26:21,845  INFO QSimProvider:120 Added AgentSource class org.matsim.core.mobsim.qsim.agents.PopulationAgentSource
2020-09-17T16:26:21,845  INFO MobsimListenerManager:49 calling addQueueSimulationListener
2020-09-17T16:26:21,845  INFO MobsimListenerManager:53   assigned class org.matsim.core.mobsim.framework.listeners.MobsimListener to interface org.matsim.core.mobsim.framework.listeners.MobsimListener
2020-09-17T16:26:21,845  INFO MobsimListenerManager:53   assigned class org.matsim.core.mobsim.framework.listeners.MobsimListener to interface org.matsim.core.mobsim.qsim.messagequeueengine.MessageQueueEngine
2020-09-17T16:26:21,845  INFO MobsimListenerManager:53   assigned class org.matsim.core.mobsim.framework.listeners.MobsimListener to interface org.matsim.core.mobsim.framework.listeners.MobsimBeforeSimStepListener
2020-09-17T16:26:21,846  INFO QSimProvider:126 Added MobsimListener class org.matsim.core.mobsim.qsim.messagequeueengine.MessageQueueEngine
2020-09-17T16:26:21,846  INFO QSimProvider:120 Added AgentSource class org.matsim.contrib.carsharing.qsim.ParkCSVehicles
2020-09-17T16:26:21,853  INFO PopulationUtils:1194 adding scenario element for allpersons container
2020-09-17T16:26:21,853  INFO PopulationImpl:105  person # 1
2020-09-17T16:26:21,853  INFO PopulationImpl:105  person # 4
2020-09-17T16:26:21,854  INFO VehicleUtils:324 adding scenario element for allvehicles container
2020-09-17T16:26:21,854  INFO Counter:69 [VehiclesImpl] added vehicle # 1
2020-09-17T16:26:21,854  INFO Counter:69 [VehiclesImpl] added vehicle # 2
2020-09-17T16:26:21,854  INFO Counter:69 [VehiclesImpl] added vehicle # 4
2020-09-17T16:26:21,854  INFO Counter:69 [VehiclesImpl] added vehicle # 8
2020-09-17T16:26:21,854  INFO Counter:69 [VehiclesImpl] added vehicle # 16
2020-09-17T16:26:21,858  INFO AbstractQNetsimEngine:427 Assigned 11 nodes and 20 links to QSimEngineRunner #0
2020-09-17T16:26:21,863  INFO AbstractQNetsimEngine:365 SIMULATION (QNetsimEngine) AT 00:00:00 : #links=0 #nodes=0
2020-09-17T16:26:21,870  INFO QSim:549 SIMULATION (NEW QSim) AT 00:00:00 : #Veh=10 lost=0 simT=0.0s realT=0s; (s/r): 0.0
2020-09-17T16:26:22,042  INFO AbstractQNetsimEngine:365 SIMULATION (QNetsimEngine) AT 01:00:00 : #links=0 #nodes=0
2020-09-17T16:26:22,043  INFO QSim:549 SIMULATION (NEW QSim) AT 01:00:00 : #Veh=10 lost=0 simT=3600.0s realT=0s; (s/r): Infinity
2020-09-17T16:26:22,181  INFO AbstractQNetsimEngine:365 SIMULATION (QNetsimEngine) AT 02:00:00 : #links=0 #nodes=0
2020-09-17T16:26:22,181  INFO QSim:549 SIMULATION (NEW QSim) AT 02:00:00 : #Veh=10 lost=0 simT=7200.0s realT=0s; (s/r): Infinity
2020-09-17T16:26:22,312  INFO AbstractQNetsimEngine:365 SIMULATION (QNetsimEngine) AT 03:00:00 : #links=0 #nodes=0
2020-09-17T16:26:22,313  INFO QSim:549 SIMULATION (NEW QSim) AT 03:00:00 : #Veh=10 lost=0 simT=10800.0s realT=0s; (s/r): Infinity
2020-09-17T16:26:22,448  INFO AbstractQNetsimEngine:365 SIMULATION (QNetsimEngine) AT 04:00:00 : #links=0 #nodes=0
2020-09-17T16:26:22,448  INFO QSim:549 SIMULATION (NEW QSim) AT 04:00:00 : #Veh=10 lost=0 simT=14400.0s realT=0s; (s/r): Infinity
2020-09-17T16:26:22,574  INFO AbstractQNetsimEngine:365 SIMULATION (QNetsimEngine) AT 05:00:00 : #links=0 #nodes=0
2020-09-17T16:26:22,575  INFO QSim:549 SIMULATION (NEW QSim) AT 05:00:00 : #Veh=10 lost=0 simT=18000.0s realT=0s; (s/r): Infinity
2020-09-17T16:26:22,713  INFO AbstractQNetsimEngine:365 SIMULATION (QNetsimEngine) AT 06:00:00 : #links=0 #nodes=0
2020-09-17T16:26:22,713  INFO QSim:549 SIMULATION (NEW QSim) AT 06:00:00 : #Veh=10 lost=0 simT=21600.0s realT=0s; (s/r): Infinity
2020-09-17T16:26:22,836  INFO AbstractQNetsimEngine:365 SIMULATION (QNetsimEngine) AT 07:00:00 : #links=0 #nodes=0
2020-09-17T16:26:22,836  INFO QSim:549 SIMULATION (NEW QSim) AT 07:00:00 : #Veh=10 lost=0 simT=25200.0s realT=1s; (s/r): 25200.0
2020-09-17T16:26:22,961  INFO EventsManagerImpl:135  event # 1
2020-09-17T16:26:22,962  INFO AbstractQNetsimEngine:365 SIMULATION (QNetsimEngine) AT 08:00:00 : #links=0 #nodes=0
2020-09-17T16:26:22,964  INFO EventsManagerImpl:135  event # 4
2020-09-17T16:26:22,966  INFO QSim:549 SIMULATION (NEW QSim) AT 08:00:00 : #Veh=10 lost=0 simT=28800.0s realT=1s; (s/r): 28800.0
2020-09-17T16:26:22,969  INFO EventsManagerImpl:135  event # 16
2020-09-17T16:26:22,998  INFO EventsManagerImpl:135  event # 64
2020-09-17T16:26:23,162  INFO EventsManagerImpl:135  event # 256
2020-09-17T16:26:23,175  INFO AbstractQNetsimEngine:365 SIMULATION (QNetsimEngine) AT 09:00:00 : #links=0 #nodes=0
2020-09-17T16:26:23,176  INFO QSim:549 SIMULATION (NEW QSim) AT 09:00:00 : #Veh=10 lost=0 simT=32400.0s realT=1s; (s/r): 32400.0
2020-09-17T16:26:23,309  INFO AbstractQNetsimEngine:365 SIMULATION (QNetsimEngine) AT 10:00:00 : #links=0 #nodes=0
2020-09-17T16:26:23,309  INFO QSim:549 SIMULATION (NEW QSim) AT 10:00:00 : #Veh=10 lost=0 simT=36000.0s realT=1s; (s/r): 36000.0
2020-09-17T16:26:23,424  INFO AbstractQNetsimEngine:365 SIMULATION (QNetsimEngine) AT 11:00:00 : #links=0 #nodes=0
2020-09-17T16:26:23,424  INFO QSim:549 SIMULATION (NEW QSim) AT 11:00:00 : #Veh=10 lost=0 simT=39600.0s realT=1s; (s/r): 39600.0
2020-09-17T16:26:23,536  INFO AbstractQNetsimEngine:365 SIMULATION (QNetsimEngine) AT 12:00:00 : #links=0 #nodes=0
2020-09-17T16:26:23,536  INFO QSim:549 SIMULATION (NEW QSim) AT 12:00:00 : #Veh=10 lost=0 simT=43200.0s realT=1s; (s/r): 43200.0
2020-09-17T16:26:23,667  INFO AbstractQNetsimEngine:365 SIMULATION (QNetsimEngine) AT 13:00:00 : #links=0 #nodes=0
2020-09-17T16:26:23,667  INFO QSim:549 SIMULATION (NEW QSim) AT 13:00:00 : #Veh=10 lost=0 simT=46800.0s realT=1s; (s/r): 46800.0
2020-09-17T16:26:23,781  INFO AbstractQNetsimEngine:365 SIMULATION (QNetsimEngine) AT 14:00:00 : #links=0 #nodes=0
2020-09-17T16:26:23,781  INFO QSim:549 SIMULATION (NEW QSim) AT 14:00:00 : #Veh=10 lost=0 simT=50400.0s realT=1s; (s/r): 50400.0
2020-09-17T16:26:23,889  INFO AbstractQNetsimEngine:365 SIMULATION (QNetsimEngine) AT 15:00:00 : #links=0 #nodes=0
2020-09-17T16:26:23,890  INFO QSim:549 SIMULATION (NEW QSim) AT 15:00:00 : #Veh=10 lost=0 simT=54000.0s realT=2s; (s/r): 27000.0
2020-09-17T16:26:23,998  INFO AbstractQNetsimEngine:365 SIMULATION (QNetsimEngine) AT 16:00:00 : #links=0 #nodes=0
2020-09-17T16:26:23,998  INFO QSim:549 SIMULATION (NEW QSim) AT 16:00:00 : #Veh=10 lost=0 simT=57600.0s realT=2s; (s/r): 28800.0
2020-09-17T16:26:24,023 ERROR BasicPlanAgentImpl:184 last activity of person driver agent id 1 has end time < infty; setting it to infty
2020-09-17T16:26:24,023 ERROR BasicPlanAgentImpl:185  This message given only once.
2020-09-17T16:26:24,114  INFO AbstractQNetsimEngine:365 SIMULATION (QNetsimEngine) AT 17:00:00 : #links=1 #nodes=0
2020-09-17T16:26:24,114  INFO QSim:549 SIMULATION (NEW QSim) AT 17:00:00 : #Veh=2 lost=0 simT=61200.0s realT=2s; (s/r): 30600.0
2020-09-17T16:26:24,233  INFO AbstractQNetsimEngine:365 SIMULATION (QNetsimEngine) AT 18:00:00 : #links=0 #nodes=0
2020-09-17T16:26:24,234  INFO QSim:549 SIMULATION (NEW QSim) AT 18:00:00 : #Veh=1 lost=0 simT=64800.0s realT=2s; (s/r): 32400.0
2020-09-17T16:26:24,337  INFO AbstractQNetsimEngine:365 SIMULATION (QNetsimEngine) AT 19:00:00 : #links=0 #nodes=0
2020-09-17T16:26:24,337  INFO QSim:549 SIMULATION (NEW QSim) AT 19:00:00 : #Veh=1 lost=0 simT=68400.0s realT=2s; (s/r): 34200.0
2020-09-17T16:26:24,448  INFO AbstractQNetsimEngine:365 SIMULATION (QNetsimEngine) AT 20:00:00 : #links=0 #nodes=0
2020-09-17T16:26:24,448  INFO QSim:549 SIMULATION (NEW QSim) AT 20:00:00 : #Veh=1 lost=0 simT=72000.0s realT=2s; (s/r): 36000.0
2020-09-17T16:26:24,549  INFO AbstractQNetsimEngine:365 SIMULATION (QNetsimEngine) AT 21:00:00 : #links=0 #nodes=0
2020-09-17T16:26:24,550  INFO QSim:549 SIMULATION (NEW QSim) AT 21:00:00 : #Veh=1 lost=0 simT=75600.0s realT=2s; (s/r): 37800.0
2020-09-17T16:26:24,653  INFO AbstractQNetsimEngine:365 SIMULATION (QNetsimEngine) AT 22:00:00 : #links=0 #nodes=0
2020-09-17T16:26:24,654  INFO QSim:549 SIMULATION (NEW QSim) AT 22:00:00 : #Veh=1 lost=0 simT=79200.0s realT=2s; (s/r): 39600.0
2020-09-17T16:26:24,756  INFO AbstractQNetsimEngine:365 SIMULATION (QNetsimEngine) AT 23:00:00 : #links=0 #nodes=0
2020-09-17T16:26:24,756  INFO QSim:549 SIMULATION (NEW QSim) AT 23:00:00 : #Veh=1 lost=0 simT=82800.0s realT=2s; (s/r): 41400.0
2020-09-17T16:26:24,867  INFO AbstractQNetsimEngine:365 SIMULATION (QNetsimEngine) AT 24:00:00 : #links=0 #nodes=0
2020-09-17T16:26:24,867  INFO QSim:549 SIMULATION (NEW QSim) AT 24:00:00 : #Veh=1 lost=0 simT=86400.0s realT=3s; (s/r): 28800.0
2020-09-17T16:26:24,972  INFO AbstractQNetsimEngine:365 SIMULATION (QNetsimEngine) AT 25:00:00 : #links=0 #nodes=0
2020-09-17T16:26:24,972  INFO QSim:549 SIMULATION (NEW QSim) AT 25:00:00 : #Veh=1 lost=0 simT=90000.0s realT=3s; (s/r): 30000.0
2020-09-17T16:26:25,075  INFO AbstractQNetsimEngine:365 SIMULATION (QNetsimEngine) AT 26:00:00 : #links=0 #nodes=0
2020-09-17T16:26:25,075  INFO QSim:549 SIMULATION (NEW QSim) AT 26:00:00 : #Veh=1 lost=0 simT=93600.0s realT=3s; (s/r): 31200.0
2020-09-17T16:26:25,179  INFO AbstractQNetsimEngine:365 SIMULATION (QNetsimEngine) AT 27:00:00 : #links=0 #nodes=0
2020-09-17T16:26:25,179  INFO QSim:549 SIMULATION (NEW QSim) AT 27:00:00 : #Veh=1 lost=0 simT=97200.0s realT=3s; (s/r): 32400.0
2020-09-17T16:26:25,293  INFO AbstractQNetsimEngine:365 SIMULATION (QNetsimEngine) AT 28:00:00 : #links=0 #nodes=0
2020-09-17T16:26:25,293  INFO QSim:549 SIMULATION (NEW QSim) AT 28:00:00 : #Veh=1 lost=0 simT=100800.0s realT=3s; (s/r): 33600.0
2020-09-17T16:26:25,401  INFO AbstractQNetsimEngine:365 SIMULATION (QNetsimEngine) AT 29:00:00 : #links=0 #nodes=0
2020-09-17T16:26:25,401  INFO QSim:549 SIMULATION (NEW QSim) AT 29:00:00 : #Veh=1 lost=0 simT=104400.0s realT=3s; (s/r): 34800.0
2020-09-17T16:26:25,502  INFO AbstractQNetsimEngine:365 SIMULATION (QNetsimEngine) AT 30:00:00 : #links=0 #nodes=0
2020-09-17T16:26:25,502  INFO QSim:549 SIMULATION (NEW QSim) AT 30:00:00 : #Veh=1 lost=0 simT=108000.0s realT=3s; (s/r): 36000.0
2020-09-17T16:26:25,604  INFO AbstractQNetsimEngine:365 SIMULATION (QNetsimEngine) AT 31:00:00 : #links=0 #nodes=0
2020-09-17T16:26:25,604  INFO QSim:549 SIMULATION (NEW QSim) AT 31:00:00 : #Veh=1 lost=0 simT=111600.0s realT=3s; (s/r): 37200.0
2020-09-17T16:26:25,712  INFO AbstractQNetsimEngine:365 SIMULATION (QNetsimEngine) AT 32:00:00 : #links=0 #nodes=0
2020-09-17T16:26:25,712  INFO QSim:549 SIMULATION (NEW QSim) AT 32:00:00 : #Veh=1 lost=0 simT=115200.0s realT=3s; (s/r): 38400.0
2020-09-17T16:26:25,741  INFO AbstractController$9:226 ### ITERATION 0 fires after mobsim event
2020-09-17T16:26:25,741  INFO ControlerListenerManagerImpl:248 calling notifyAfterMobsim on org.matsim.analysis.LegTimesControlerListener
2020-09-17T16:26:25,744  INFO Gbl:191 Thread performance: Thread=class org.matsim.core.events.SimStepParallelEventsManagerImpl$ProcessEventsRunnable0  cpu-time=0.769335sec
2020-09-17T16:26:25,752  INFO LegTimesControlerListener:50 [0] average trip (probably: leg) duration is: 271 seconds = 00:04:31
2020-09-17T16:26:25,752  INFO ControlerListenerManagerImpl:248 calling notifyAfterMobsim on org.matsim.core.events.MobsimScopeEventHandling
2020-09-17T16:26:25,753  INFO ControlerListenerManagerImpl:248 calling notifyAfterMobsim on org.matsim.core.scoring.EventsToActivities$1
2020-09-17T16:26:25,753  WARN CharyparNagelActivityScoring:228 There are opening or closing times defined for the first and last activity. The correctness of the scoring function can thus not be guaranteed.
2020-09-17T16:26:25,762  WARN CharyparNagelActivityScoring:229 first activity: act [type=h][coord=null][linkId=0][startTime=undefined][endTime=08:00:00][duration=undefined][facilityId=0]
2020-09-17T16:26:25,763  WARN CharyparNagelActivityScoring:230 last activity: act [type=h][coord=[x=0.0 | y=-375.0]][linkId=0][startTime=32:13:40][endTime=undefined][duration=undefined][facilityId=0]
2020-09-17T16:26:25,763  WARN CharyparNagelActivityScoring:228 There are opening or closing times defined for the first and last activity. The correctness of the scoring function can thus not be guaranteed.
2020-09-17T16:26:25,763  WARN CharyparNagelActivityScoring:229 first activity: act [type=h][coord=null][linkId=12][startTime=undefined][endTime=08:00:03][duration=undefined][facilityId=1]
2020-09-17T16:26:25,763  WARN CharyparNagelActivityScoring:230 last activity: act [type=h][coord=[x=-375.0 | y=0.0]][linkId=12][startTime=16:12:24][endTime=undefined][duration=undefined][facilityId=1]
[...]
2020-09-17T16:27:29,125  INFO Gbl:191 Thread performance: Thread=class org.matsim.core.events.SimStepParallelEventsManagerImpl$ProcessEventsRunnable0  cpu-time=0.31996sec
2020-09-17T16:27:29,125  INFO LegTimesControlerListener:50 [20] average trip (probably: leg) duration is: 425 seconds = 00:07:05
2020-09-17T16:27:29,126  INFO ControlerListenerManagerImpl:248 calling notifyAfterMobsim on org.matsim.core.events.MobsimScopeEventHandling
2020-09-17T16:27:29,126  INFO ControlerListenerManagerImpl:248 calling notifyAfterMobsim on org.matsim.core.scoring.EventsToActivities$1
2020-09-17T16:27:29,126  WARN CharyparNagelActivityScoring:228 There are opening or closing times defined for the first and last activity. The correctness of the scoring function can thus not be guaranteed.
2020-09-17T16:27:29,126  WARN CharyparNagelActivityScoring:229 first activity: act [type=h][coord=null][linkId=12][startTime=undefined][endTime=08:00:03][duration=undefined][facilityId=1]
2020-09-17T16:27:29,126  WARN CharyparNagelActivityScoring:230 last activity: act [type=h][coord=[x=-375.0 | y=0.0]][linkId=12][startTime=16:15:41][endTime=undefined][duration=undefined][facilityId=1]
2020-09-17T16:27:29,126  WARN CharyparNagelActivityScoring:228 There are opening or closing times defined for the first and last activity. The correctness of the scoring function can thus not be guaranteed.
2020-09-17T16:27:29,126  WARN CharyparNagelActivityScoring:229 first activity: act [type=h][coord=null][linkId=12][startTime=undefined][endTime=08:00:36][duration=undefined][facilityId=1]
2020-09-17T16:27:29,126  WARN CharyparNagelActivityScoring:230 last activity: act [type=h][coord=[x=-375.0 | y=0.0]][linkId=12][startTime=16:07:27][endTime=undefined][duration=undefined][facilityId=1]
2020-09-17T16:27:29,126  WARN CharyparNagelActivityScoring:228 There are opening or closing times defined for the first and last activity. The correctness of the scoring function can thus not be guaranteed.
2020-09-17T16:27:29,126  WARN CharyparNagelActivityScoring:229 first activity: act [type=h][coord=null][linkId=12][startTime=undefined][endTime=08:06:00][duration=undefined][facilityId=1]
2020-09-17T16:27:29,126  WARN CharyparNagelActivityScoring:230 last activity: act [type=h][coord=[x=-375.0 | y=0.0]][linkId=12][startTime=16:21:38][endTime=undefined][duration=undefined][facilityId=1]
2020-09-17T16:27:29,126  WARN CharyparNagelActivityScoring:228 There are opening or closing times defined for the first and last activity. The correctness of the scoring function can thus not be guaranteed.
2020-09-17T16:27:29,126  WARN CharyparNagelActivityScoring:229 first activity: act [type=h][coord=null][linkId=15][startTime=undefined][endTime=08:06:03][duration=undefined][facilityId=2]
2020-09-17T16:27:29,126  WARN CharyparNagelActivityScoring:230 last activity: act [type=h][coord=[x=0.0 | y=375.0]][linkId=15][startTime=16:19:04][endTime=undefined][duration=undefined][facilityId=2]
2020-09-17T16:27:29,126  WARN CharyparNagelActivityScoring:228 There are opening or closing times defined for the first and last activity. The correctness of the scoring function can thus not be guaranteed.
2020-09-17T16:27:29,126  WARN CharyparNagelActivityScoring:229 first activity: act [type=h][coord=null][linkId=12][startTime=undefined][endTime=08:06:10][duration=undefined][facilityId=1]
2020-09-17T16:27:29,126  WARN CharyparNagelActivityScoring:230 last activity: act [type=h][coord=[x=-375.0 | y=0.0]][linkId=12][startTime=16:23:02][endTime=undefined][duration=undefined][facilityId=1]
2020-09-17T16:27:29,126  WARN CharyparNagelActivityScoring:228 There are opening or closing times defined for the first and last activity. The correctness of the scoring function can thus not be guaranteed.
2020-09-17T16:27:29,126  WARN CharyparNagelActivityScoring:229 first activity: act [type=h][coord=null][linkId=15][startTime=undefined][endTime=08:06:14][duration=undefined][facilityId=2]
2020-09-17T16:27:29,127  WARN CharyparNagelActivityScoring:230 last activity: act [type=h][coord=[x=0.0 | y=375.0]][linkId=15][startTime=16:13:27][endTime=undefined][duration=undefined][facilityId=2]
2020-09-17T16:27:29,127  WARN CharyparNagelActivityScoring:228 There are opening or closing times defined for the first and last activity. The correctness of the scoring function can thus not be guaranteed.
2020-09-17T16:27:29,127  WARN CharyparNagelActivityScoring:229 first activity: act [type=h][coord=null][linkId=0][startTime=undefined][endTime=08:06:18][duration=undefined][facilityId=0]
2020-09-17T16:27:29,127  WARN CharyparNagelActivityScoring:230 last activity: act [type=h][coord=[x=0.0 | y=-375.0]][linkId=0][startTime=16:16:46][endTime=undefined][duration=undefined][facilityId=0]
2020-09-17T16:27:29,127  WARN CharyparNagelActivityScoring:228 There are opening or closing times defined for the first and last activity. The correctness of the scoring function can thus not be guaranteed.
2020-09-17T16:27:29,127  WARN CharyparNagelActivityScoring:229 first activity: act [type=h][coord=null][linkId=12][startTime=undefined][endTime=08:06:21][duration=undefined][facilityId=1]
2020-09-17T16:27:29,127  WARN CharyparNagelActivityScoring:230 last activity: act [type=h][coord=[x=-375.0 | y=0.0]][linkId=12][startTime=17:30:51][endTime=undefined][duration=undefined][facilityId=1]
2020-09-17T16:27:29,127  INFO ControlerListenerManagerImpl:251 [it.20] all ControlerAfterMobsimListeners called.
2020-09-17T16:27:29,127  INFO AbstractController$4:151 ### ITERATION 20 fires scoring event
2020-09-17T16:27:29,127  INFO ControlerListenerManagerImpl:183 calling notifyScoring on org.matsim.core.scoring.PlansScoringImpl
2020-09-17T16:27:29,127  INFO NewScoreAssignerImpl:57 it: 20 msaStart: null
2020-09-17T16:27:29,127  INFO ControlerListenerManagerImpl:194 [it.20] all ControlerScoringListeners called.
2020-09-17T16:27:29,127  INFO AbstractController$5:159 ### ITERATION 20 fires iteration end event
2020-09-17T16:27:29,127  INFO ControlerListenerManagerImpl:160 calling notifyIterationEnds on org.matsim.core.controler.corelisteners.EventsHandlingImpl
2020-09-17T16:27:29,128  INFO EventsManagerImpl:175 removing Event-Handler: org.matsim.core.events.algorithms.EventWriterXML
2020-09-17T16:27:29,128  INFO EventsManagerImpl:175 removing Event-Handler: org.matsim.core.events.algorithms.EventWriterXML
2020-09-17T16:27:29,128  INFO ControlerListenerManagerImpl:160 calling notifyIterationEnds on org.matsim.core.scoring.PlansScoringImpl
2020-09-17T16:27:29,128  INFO PopulationImpl:105  person # 1
2020-09-17T16:27:29,128  INFO PopulationImpl:105  person # 4
2020-09-17T16:27:29,128  INFO Counter:69 [PopulationWriter] dumped person # 1
2020-09-17T16:27:29,128  INFO Counter:69 [PopulationWriter] dumped person # 2
2020-09-17T16:27:29,128  INFO Counter:69 [PopulationWriter] dumped person # 4
2020-09-17T16:27:29,128  INFO Counter:69 [PopulationWriter] dumped person # 8
2020-09-17T16:27:29,128  INFO PopulationWriter:144 Population written to: test/output/RunCarSharingIt/test/ITERS/it.20/run1.20.experienced_plans.xml.gz
2020-09-17T16:27:29,129  INFO Counter:74 [PopulationWriter] dumped person # 10
2020-09-17T16:27:29,129  INFO ControlerListenerManagerImpl:167 calling notifyIterationEnds on org.matsim.counts.CountsControlerListener
2020-09-17T16:27:29,129  INFO CountSimComparisonTableWriter:93 Writing CountsSimComparison to test/output/RunCarSharingIt/test/ITERS/it.20/run1.20.countscompare.txt
2020-09-17T16:27:29,129  INFO CountSimComparisonTableWriter:134 Writing 'average weekday traffic volume' to test/output/RunCarSharingIt/test/ITERS/it.20/run1.20.countscompareAWTV.txt
2020-09-17T16:27:29,129  INFO ControlerListenerManagerImpl:167 calling notifyIterationEnds on org.matsim.analysis.ModeStatsControlerListener
2020-09-17T16:27:29,129  INFO ModeStatsControlerListener:130 Mode shares over all 22.0 trips found. MainModeIdentifier: class org.matsim.core.router.RoutingModeMainModeIdentifier
2020-09-17T16:27:29,129  INFO ModeStatsControlerListener:137 -- mode share of mode bike = 0.18181818181818182
2020-09-17T16:27:29,129  INFO ModeStatsControlerListener:137 -- mode share of mode car = 0.0
2020-09-17T16:27:29,130  INFO ModeStatsControlerListener:137 -- mode share of mode freefloating = 0.09090909090909091
2020-09-17T16:27:29,130  INFO ModeStatsControlerListener:137 -- mode share of mode pt = 0.18181818181818182
2020-09-17T16:27:29,130  INFO ModeStatsControlerListener:137 -- mode share of mode twoway = 0.45454545454545453
2020-09-17T16:27:29,130  INFO ModeStatsControlerListener:137 -- mode share of mode walk = 0.09090909090909091
2020-09-17T16:27:29,158  INFO ControlerListenerManagerImpl:167 calling notifyIterationEnds on org.matsim.analysis.ScoreStatsControlerListener
2020-09-17T16:27:29,158  INFO ScoreStatsControlerListener:181 -- avg. score of the executed plan of each agent: -145.3676728186465
2020-09-17T16:27:29,158  INFO ScoreStatsControlerListener:182 -- avg. score of the worst plan of each agent: -202.26543355712698
2020-09-17T16:27:29,158  INFO ScoreStatsControlerListener:183 -- avg. of the avg. plan score per agent: -26.91452960840474
2020-09-17T16:27:29,158  INFO ScoreStatsControlerListener:184 -- avg. score of the best plan of each agent: 81.1368977056921
2020-09-17T16:27:29,185  INFO ControlerListenerManagerImpl:167 calling notifyIterationEnds on org.matsim.analysis.IterationTravelStatsControlerListener
2020-09-17T16:27:29,186  INFO TravelDistanceStats:143 -- average leg distance per plan (executed plans only): 1303.7389070082097 meters
2020-09-17T16:27:29,186  INFO TravelDistanceStats:144 average leg distance per Person (executed plans only): 3128.973376819703 meters (statistic on all 24 legs which have a finite distance)
2020-09-17T16:27:29,186  INFO TravelDistanceStats:145 -- average trip distance per plan (executed plans only): 1955.6083605123144 meters
2020-09-17T16:27:29,186  INFO TravelDistanceStats:146 average trip distance per Person (executed plans only): 3128.973376819703 meters (statistic on all 16 trips which have a finite distance)
2020-09-17T16:27:29,186  INFO TravelDistanceStats:147 (TravelDistanceStats takes an average over all legs where the simulation reports travelled (network) distances
2020-09-17T16:27:29,186  INFO TravelDistanceStats:148 (and teleported legs whose route contains a distance.)
2020-09-17T16:27:29,383  INFO ControlerListenerManagerImpl:167 calling notifyIterationEnds on org.matsim.analysis.LegHistogramListener
2020-09-17T16:27:29,385  INFO LegHistogramListener:72 number of legs:	24	100%
2020-09-17T16:27:29,385  INFO LegHistogramListener:79 number of access_walk_ff legs:	2	8.333333333333334%
2020-09-17T16:27:29,386  INFO LegHistogramListener:79 number of access_walk_tw legs:	2	8.333333333333334%
2020-09-17T16:27:29,386  INFO LegHistogramListener:79 number of bike legs:	4	16.666666666666668%
2020-09-17T16:27:29,386  INFO LegHistogramListener:79 number of egress_walk_ff legs:	2	8.333333333333334%
2020-09-17T16:27:29,386  INFO LegHistogramListener:79 number of egress_walk_tw legs:	2	8.333333333333334%
2020-09-17T16:27:29,386  INFO LegHistogramListener:79 number of freefloating_vehicle legs:	2	8.333333333333334%
2020-09-17T16:27:29,386  INFO LegHistogramListener:79 number of pt legs:	4	16.666666666666668%
2020-09-17T16:27:29,386  INFO LegHistogramListener:79 number of twoway_vehicle legs:	4	16.666666666666668%
2020-09-17T16:27:29,386  INFO LegHistogramListener:79 number of walk legs:	2	8.333333333333334%
2020-09-17T16:27:29,820  INFO ControlerListenerManagerImpl:167 calling notifyIterationEnds on org.matsim.analysis.LinkStatsControlerListener
2020-09-17T16:27:29,822  INFO ControlerListenerManagerImpl:167 calling notifyIterationEnds on org.matsim.contrib.carsharing.control.listeners.CarsharingListener
2020-09-17T16:27:29,824  INFO ControlerListenerManagerImpl:171 [it.20] all ControlerIterationEndsListeners called.
2020-09-17T16:27:29,871  INFO AbstractController:173 ### ITERATION 20 ENDS
2020-09-17T16:27:29,871  INFO AbstractController:174 ###################################################
2020-09-17T16:27:29,871  INFO MatsimRuntimeModifications:79 S H U T D O W N   ---   start shutdown.
2020-09-17T16:27:29,871  INFO ControlerListenerManagerImpl:121 calling notifyShutdown on org.matsim.core.controler.corelisteners.EventsHandlingImpl
2020-09-17T16:27:29,871  INFO ControlerListenerManagerImpl:121 calling notifyShutdown on org.matsim.core.controler.corelisteners.DumpDataAtEndImpl
2020-09-17T16:27:29,875  INFO Counter:69 [PopulationWriter] dumped person # 1
2020-09-17T16:27:29,875  INFO Counter:69 [PopulationWriter] dumped person # 2
2020-09-17T16:27:29,876  INFO Counter:69 [PopulationWriter] dumped person # 4
2020-09-17T16:27:29,877  INFO Counter:69 [PopulationWriter] dumped person # 8
2020-09-17T16:27:29,877  INFO PopulationWriter:144 Population written to: test/output/RunCarSharingIt/test/run1.output_plans.xml.gz
2020-09-17T16:27:29,878  INFO Counter:74 [PopulationWriter] dumped person # 10
2020-09-17T16:27:29,880  INFO NetworkWriter:69 Writing network to file: test/output/RunCarSharingIt/test/run1.output_network.xml.gz...
2020-09-17T16:27:29,883  INFO NetworkWriter:72 done.
2020-09-17T16:27:29,891  INFO LearningWithGoogleCom.PlayingCarsharing:572 setting context to [file:/Users/cptnemo2005/IdeaProjects/matsim-examples-tri/]
2020-09-17T16:27:29,894  INFO LearningWithGoogleCom.PlayingCarsharing:572 setting context to [file:/Users/cptnemo2005/IdeaProjects/matsim-examples-tri/]
2020-09-17T16:27:29,898  INFO LearningWithGoogleCom.PlayingCarsharing:572 setting context to [file:/Users/cptnemo2005/IdeaProjects/matsim-examples-tri/]
2020-09-17T16:27:29,900  INFO LearningWithGoogleCom.PlayingCarsharing:572 setting context to [file:/Users/cptnemo2005/IdeaProjects/matsim-examples-tri/]
2020-09-17T16:27:29,903  INFO LearningWithGoogleCom.PlayingCarsharing:572 setting context to [file:/Users/cptnemo2005/IdeaProjects/matsim-examples-tri/]
2020-09-17T16:27:29,905  INFO LearningWithGoogleCom.PlayingCarsharing:572 setting context to [file:/Users/cptnemo2005/IdeaProjects/matsim-examples-tri/]
2020-09-17T16:27:29,908  INFO LearningWithGoogleCom.PlayingCarsharing:572 setting context to [file:/Users/cptnemo2005/IdeaProjects/matsim-examples-tri/]
2020-09-17T16:27:29,910  INFO LearningWithGoogleCom.PlayingCarsharing:572 setting context to [file:/Users/cptnemo2005/IdeaProjects/matsim-examples-tri/]
2020-09-17T16:27:29,915  INFO LearningWithGoogleCom.PlayingCarsharing:572 setting context to [file:/Users/cptnemo2005/IdeaProjects/matsim-examples-tri/]
2020-09-17T16:27:29,917  INFO LearningWithGoogleCom.PlayingCarsharing:572 setting context to [file:/Users/cptnemo2005/IdeaProjects/matsim-examples-tri/]
2020-09-17T16:27:29,919  INFO LearningWithGoogleCom.PlayingCarsharing:572 setting context to [file:/Users/cptnemo2005/IdeaProjects/matsim-examples-tri/]
2020-09-17T16:27:29,921  INFO LearningWithGoogleCom.PlayingCarsharing:572 setting context to [file:/Users/cptnemo2005/IdeaProjects/matsim-examples-tri/]
2020-09-17T16:27:29,923  INFO LearningWithGoogleCom.PlayingCarsharing:572 setting context to [file:/Users/cptnemo2005/IdeaProjects/matsim-examples-tri/]
2020-09-17T16:27:29,925  INFO LearningWithGoogleCom.PlayingCarsharing:572 setting context to [file:/Users/cptnemo2005/IdeaProjects/matsim-examples-tri/]
2020-09-17T16:27:29,927  INFO LearningWithGoogleCom.PlayingCarsharing:572 setting context to [file:/Users/cptnemo2005/IdeaProjects/matsim-examples-tri/]
2020-09-17T16:27:29,929  INFO LearningWithGoogleCom.PlayingCarsharing:572 setting context to [file:/Users/cptnemo2005/IdeaProjects/matsim-examples-tri/]
2020-09-17T16:27:29,931  INFO LearningWithGoogleCom.PlayingCarsharing:572 setting context to [file:/Users/cptnemo2005/IdeaProjects/matsim-examples-tri/]
2020-09-17T16:27:29,932  INFO LearningWithGoogleCom.PlayingCarsharing:572 setting context to [file:/Users/cptnemo2005/IdeaProjects/matsim-examples-tri/]
2020-09-17T16:27:29,936  INFO LearningWithGoogleCom.PlayingCarsharing:572 setting context to [file:/Users/cptnemo2005/IdeaProjects/matsim-examples-tri/]
2020-09-17T16:27:29,937  INFO LearningWithGoogleCom.PlayingCarsharing:572 setting context to [file:/Users/cptnemo2005/IdeaProjects/matsim-examples-tri/]
2020-09-17T16:27:29,938  WARN PlansCalcRouteConfigGroup:342 The first mode routing params that are explicitly defined clear the default mode routing params.  This functionality was removed for 
2020-09-17T16:27:29,938  WARN PlansCalcRouteConfigGroup:343     some weeks in the development head, after release 11.x, and before release 12.x; it is now back.  If you want to avoid this 
2020-09-17T16:27:29,938  WARN PlansCalcRouteConfigGroup:344     warning, use clearModeRoutingParams(true) in code, and "clearDefaultTeleportedModeParams"=true in xml config.
2020-09-17T16:27:29,939  INFO LearningWithGoogleCom.PlayingCarsharing:572 setting context to [file:/Users/cptnemo2005/IdeaProjects/matsim-examples-tri/]
2020-09-17T16:27:29,940  INFO LearningWithGoogleCom.PlayingCarsharing:572 setting context to [file:/Users/cptnemo2005/IdeaProjects/matsim-examples-tri/]
2020-09-17T16:27:29,946  INFO LearningWithGoogleCom.PlayingCarsharing:572 setting context to [file:/Users/cptnemo2005/IdeaProjects/matsim-examples-tri/]
2020-09-17T16:27:29,948  INFO LearningWithGoogleCom.PlayingCarsharing:572 setting context to [file:/Users/cptnemo2005/IdeaProjects/matsim-examples-tri/]
2020-09-17T16:27:29,950  INFO LearningWithGoogleCom.PlayingCarsharing:572 setting context to [file:/Users/cptnemo2005/IdeaProjects/matsim-examples-tri/]
2020-09-17T16:27:29,953  INFO LearningWithGoogleCom.PlayingCarsharing:572 setting context to [file:/Users/cptnemo2005/IdeaProjects/matsim-examples-tri/]
2020-09-17T16:27:29,955  INFO LearningWithGoogleCom.PlayingCarsharing:572 setting context to [file:/Users/cptnemo2005/IdeaProjects/matsim-examples-tri/]
2020-09-17T16:27:29,956  INFO LearningWithGoogleCom.PlayingCarsharing:572 setting context to [file:/Users/cptnemo2005/IdeaProjects/matsim-examples-tri/]
2020-09-17T16:27:29,957  INFO LearningWithGoogleCom.PlayingCarsharing:572 setting context to [file:/Users/cptnemo2005/IdeaProjects/matsim-examples-tri/]
2020-09-17T16:27:29,959  INFO LearningWithGoogleCom.PlayingCarsharing:572 setting context to [file:/Users/cptnemo2005/IdeaProjects/matsim-examples-tri/]
2020-09-17T16:27:29,965  INFO MatsimVehicleWriter:54 about to write vehicles to: test/output/RunCarSharingIt/test/run1.output_vehicles.xml.gz
2020-09-17T16:27:29,965  INFO VehicleWriterV2:63 about to write vehicles to: test/output/RunCarSharingIt/test/run1.output_vehicles.xml.gz
2020-09-17T16:27:29,967  INFO MatsimVehicleWriter:54 about to write vehicles to: test/output/RunCarSharingIt/test/run1.output_allVehicles.xml.gz
2020-09-17T16:27:29,967  INFO VehicleWriterV2:63 about to write vehicles to: test/output/RunCarSharingIt/test/run1.output_allVehicles.xml.gz
2020-09-17T16:27:29,969  INFO HouseholdsWriterV10:66 about to write  households to: test/output/RunCarSharingIt/test/run1.output_households.xml.gz
2020-09-17T16:27:29,969  INFO Counter:74 [HouseholdsWriter] wrote household # 0
2020-09-17T16:27:29,980  INFO ControlerListenerManagerImpl:126 calling notifyShutdown on org.matsim.analysis.ScoreStatsControlerListener
2020-09-17T16:27:29,980  INFO ControlerListenerManagerImpl:126 calling notifyShutdown on org.matsim.analysis.IterationTravelStatsControlerListener
2020-09-17T16:27:29,980  INFO IterationTravelStatsControlerListener:104 Writing all Person and Attributes to personscsv
2020-09-17T16:27:29,983  INFO IterationTravelStatsControlerListener:148 ...done
2020-09-17T16:27:29,983  INFO ControlerListenerManagerImpl:129 all ControlerShutdownListeners called.
2020-09-17T16:27:29,983  INFO MatsimRuntimeModifications:102 S H U T D O W N   ---   shutdown completed.
2020-09-17T16:27:29,983  INFO OutputDirectoryLogging:170 closing the logfile, i.e. messages sent to the logger after this message are not written to the logfile.
